@<TRIPOS>MOLECULE
3R135
127   129    1
SMALL
USER_CHARGES


@<TRIPOS>ATOM
      1 CA        -79.4880   23.9620  -71.2087 C.3       0 UNK        -0.1998 
      2 C         -80.0911   24.8618  -72.2758 C.2       0 UNK         0.4909 
      3 O         -79.4568   25.1007  -73.3051 O.2       0 UNK        -0.5240 
      4 N         -81.3193   25.3426  -72.0298 N.am      1 UNK        -0.4739 
      5 CA        -82.1045   26.2471  -72.8879 C.3       1 UNK         0.0864 
      6 C6        -81.5230   27.6873  -72.9465 C.3       11 UNK        -0.0881 
      7 S7        -81.6846   28.5214  -71.3345 S.3       11 UNK        -0.2682 
      8 C8        -80.7925   30.0842  -71.6457 C.3       11 UNK         0.0289 
      9 C9        -79.2678   29.9977  -71.5564 C.ar      11 UNK        -0.0687 
     10 C10       -78.6187   29.0163  -70.7939 C.ar      11 UNK        -0.0823 
     11 C11       -77.2249   28.9964  -70.6933 C.ar      11 UNK        -0.0830 
     12 C12       -76.4767   29.9818  -71.3375 C.ar      11 UNK        -0.1021 
     13 C13       -77.1038   30.9611  -72.1082 C.ar      11 UNK        -0.0753 
     14 C14       -78.4979   30.9635  -72.2162 C.ar      11 UNK        -0.0933 
     15 C15       -76.2612   32.0228  -72.7943 C.3       11 UNK         0.0166 
     16 S16       -75.3872   31.3478  -74.2451 S.3       11 UNK        -0.2615 
     17 C17       -73.7562   32.1613  -74.0891 C.3       11 UNK        -0.0865 
     18 CA        -72.5818   31.1997  -73.7641 C.3       10 UNK         0.0862 
     19 C         -72.7370   30.4759  -72.3962 C.2       10 UNK         0.5551 
     20 N         -72.9350   29.1645  -72.3568 N.am      10 UNK        -0.7319 
     21 O         -72.6599   31.1194  -71.3525 O.2       10 UNK        -0.5018 
     22 N         -72.2683   30.3185  -74.8992 N.am      10 UNK        -0.4509 
     23 C         -71.0392   29.8630  -75.1717 C.2       10 UNK         0.4899 
     24 O         -70.0485   30.0896  -74.4742 O.2       10 UNK        -0.4839 
     25 CA        -70.9010   29.0528  -76.4681 C.3       9 UNK         0.0222 
     26 CB        -69.4782   29.1032  -77.0665 C.3       9 UNK        -0.1966 
     27 N         -71.3732   27.6763  -76.3076 N.am      9 UNK        -0.4218 
     28 C         -70.8262   26.6793  -75.5925 C.2       9 UNK         0.5020 
     29 O         -69.8048   26.8000  -74.9147 O.2       9 UNK        -0.5274 
     30 CA        -71.5081   25.2930  -75.6462 C.3       8 UNK         0.0270 
     31 CB        -71.9009   24.8155  -74.2372 C.3       8 UNK        -0.1976 
     32 N         -72.6839   25.2368  -76.5208 N.am      8 UNK        -0.4313 
     33 C         -72.6557   25.2485  -77.8610 C.2       8 UNK         0.5041 
     34 O         -71.6195   25.1922  -78.5236 O.2       8 UNK        -0.5577 
     35 CA        -74.0041   25.4134  -78.5845 C.3       7 UNK         0.0284 
     36 CB        -74.6078   24.0423  -78.9276 C.3       7 UNK        -0.1958 
     37 N         -74.9778   26.2008  -77.8203 N.am      7 UNK        -0.4454 
     38 C         -74.8392   27.4894  -77.4753 C.2       7 UNK         0.5089 
     39 O         -73.8794   28.1851  -77.8046 O.2       7 UNK        -0.5125 
     40 CA        -75.9151   28.0800  -76.5489 C.3       6 UNK         0.0408 
     41 CB        -77.1788   28.4702  -77.3307 C.3       6 UNK        -0.1791 
     42 N         -76.2559   27.1594  -75.4621 N.am      6 UNK        -0.4762 
     43 C         -75.4346   26.8670  -74.4418 C.2       6 UNK         0.5007 
     44 O         -74.3368   27.4043  -74.2844 O.2       6 UNK        -0.5032 
     45 CA        -75.8793   25.7408  -73.4810 C.3       5 UNK         0.0783 
     46 C46       -76.5847   26.2748  -72.2151 C.3       11 UNK        -0.0857 
     47 S47       -75.4165   26.9053  -70.9654 S.3       11 UNK        -0.2512 
     48 C48       -76.5221   27.8977  -69.9089 C.3       11 UNK         0.0225 
     49 N         -76.7043   24.7340  -74.1578 N.am      5 UNK        -0.4615 
     50 C         -76.2034   23.8151  -74.9920 C.2       4 UNK         0.5053 
     51 O         -75.0114   23.7513  -75.2921 O.2       4 UNK        -0.5105 
     52 CA        -77.1895   22.8111  -75.6117 C.3       4 UNK         0.0263 
     53 CB        -77.5923   21.7420  -74.5836 C.3       4 UNK        -0.1981 
     54 N         -78.3984   23.4038  -76.1914 N.am      4 UNK        -0.4224 
     55 C         -78.4436   24.3847  -77.1006 C.2       3 UNK         0.4895 
     56 O         -77.4500   24.9978  -77.4833 O.2       3 UNK        -0.5091 
     57 CA        -79.8055   24.7614  -77.7128 C.3       3 UNK         0.0250 
     58 CB        -79.9791   24.0938  -79.0904 C.3       3 UNK        -0.1996 
     59 N         -80.9849   24.5353  -76.8662 N.am      3 UNK        -0.4254 
     60 C         -81.5026   23.3920  -76.3982 C.2       2 UNK         0.5004 
     61 O         -80.9903   22.2851  -76.5720 O.2       2 UNK        -0.5226 
     62 CA        -82.7853   23.5278  -75.5540 C.3       2 UNK         0.0269 
     63 CB        -83.3772   22.1630  -75.1542 C.3       2 UNK        -0.1926 
     64 N         -82.5552   24.3148  -74.3396 N.am      2 UNK        -0.4687 
     65 C         -82.3985   25.6457  -74.2814 C.2       1 UNK         0.5165 
     66 O         -82.4792   26.3739  -75.2736 O.2       1 UNK        -0.5079 
     67 H67       -79.0051   24.5627  -70.4386 H         1 UNK         0.0900 
     68 H68       -80.2508   23.3445  -70.7348 H         1 UNK         0.0900 
     69 H69       -78.7411   23.2980  -71.6422 H         1 UNK         0.0900 
     70 H70       -81.7675   25.0968  -71.1576 H         1 UNK         0.2959 
     71 H71       -83.0896   26.3169  -72.4230 H         1 UNK         0.1079 
     72 H72       -82.0543   28.3016  -73.6757 H         1 UNK         0.0837 
     73 H73       -80.4760   27.6762  -73.2550 H         1 UNK         0.0837 
     74 H74       -81.0909   30.4694  -72.6221 H         1 UNK         0.0685 
     75 H75       -81.1293   30.8168  -70.9114 H         1 UNK         0.0685 
     76 H76       -79.1924   28.2622  -70.2745 H         1 UNK         0.1434 
     77 H77       -75.3991   29.9725  -71.2565 H         1 UNK         0.1329 
     78 H78       -78.9862   31.7306  -72.8018 H         1 UNK         0.1335 
     79 H79       -75.5519   32.4149  -72.0643 H         1 UNK         0.0680 
     80 H80       -76.8758   32.8674  -73.1092 H         1 UNK         0.0680 
     81 H81       -73.5516   32.6765  -75.0288 H         1 UNK         0.1032 
     82 H82       -73.7991   32.9558  -73.3427 H         1 UNK         0.1032 
     83 H83       -71.7147   31.8504  -73.6310 H         1 UNK         0.0461 
     84 H84       -73.0319   28.7065  -71.4659 H         1 UNK         0.3453 
     85 H85       -73.1162   28.6438  -73.2071 H         1 UNK         0.3453 
     86 H86       -73.0451   30.0506  -75.4866 H         1 UNK         0.2984 
     87 H87       -71.5637   29.5138  -77.2020 H         1 UNK         0.0554 
     88 H88       -69.1821   30.1328  -77.2708 H         1 UNK         0.0847 
     89 H89       -69.4253   28.5573  -78.0084 H         1 UNK         0.0847 
     90 H90       -68.7304   28.6831  -76.3935 H         1 UNK         0.0847 
     91 H91       -72.2390   27.4803  -76.7981 H         1 UNK         0.3141 
     92 H92       -70.7682   24.5933  -76.0403 H         1 UNK         0.0743 
     93 H93       -72.5847   25.5103  -73.7512 H         1 UNK         0.0784 
     94 H94       -72.3777   23.8355  -74.2654 H         1 UNK         0.0784 
     95 H95       -71.0227   24.7281  -73.5964 H         1 UNK         0.0784 
     96 H96       -73.5882   25.1975  -76.0645 H         1 UNK         0.3213 
     97 H97       -73.8115   25.9462  -79.5181 H         1 UNK         0.0855 
     98 H98       -74.8428   23.4692  -78.0302 H         1 UNK         0.0814 
     99 H99       -73.9141   23.4477  -79.5234 H         1 UNK         0.0814 
    100 H100      -75.5259   24.1469  -79.5060 H         1 UNK         0.0814 
    101 H101      -75.8376   25.7210  -77.5519 H         1 UNK         0.3105 
    102 H102      -75.5061   28.9893  -76.1050 H         1 UNK         0.0547 
    103 H103      -76.9406   29.1900  -78.1148 H         1 UNK         0.0837 
    104 H104      -77.6473   27.6117  -77.8114 H         1 UNK         0.0837 
    105 H105      -77.9181   28.9361  -76.6791 H         1 UNK         0.0837 
    106 H106      -77.1115   26.6307  -75.5572 H         1 UNK         0.3020 
    107 H107      -74.9670   25.2341  -73.1573 H         1 UNK         0.1245 
    108 H108      -77.1306   25.4680  -71.7281 H         1 UNK         0.0781 
    109 H109      -77.3303   27.0261  -72.4794 H         1 UNK         0.0781 
    110 H110      -75.9371   28.3486  -69.1063 H         1 UNK         0.0836 
    111 H111      -77.2439   27.2339  -69.4303 H         1 UNK         0.0836 
    112 H112      -77.7044   24.7556  -73.9676 H         1 UNK         0.3022 
    113 H113      -76.6637   22.3112  -76.4274 H         1 UNK         0.0747 
    114 H114      -78.1714   20.9442  -75.0491 H         1 UNK         0.0793 
    115 H115      -76.7132   21.2814  -74.1304 H         1 UNK         0.0793 
    116 H116      -78.1941   22.1645  -73.7785 H         1 UNK         0.0793 
    117 H117      -79.2756   22.9293  -76.0009 H         1 UNK         0.3047 
    118 H118      -79.7716   25.8399  -77.8749 H         1 UNK         0.0822 
    119 H119      -80.8928   24.4284  -79.5814 H         1 UNK         0.0807 
    120 H120      -80.0171   23.0066  -79.0140 H         1 UNK         0.0807 
    121 H121      -79.1472   24.3423  -79.7512 H         1 UNK         0.0807 
    122 H122      -81.4605   25.3823  -76.5643 H         1 UNK         0.2946 
    123 H123      -83.5239   24.0435  -76.1725 H         1 UNK         0.1144 
    124 H124      -84.3168   22.2806  -74.6140 H         1 UNK         0.0793 
    125 H125      -82.6944   21.5950  -74.5210 H         1 UNK         0.0793 
    126 H126      -83.5868   21.5550  -76.0354 H         1 UNK         0.0793 
    127 H127      -82.4381   23.7936  -73.4826 H         1 UNK         0.2896 
@<TRIPOS>BOND
     1    1    2 1    
     2    1   67 1    
     3    1   68 1    
     4    1   69 1    
     5    2    3 2    
     6    2    4 am   BACKBONE|DICT|INTERRES
     7    4    5 1    
     8    4   70 1    
     9    5    6 1    
    10    5   65 1    
    11    5   71 1    
    12    6    7 1    
    13    6   72 1    
    14    6   73 1    
    15    7    8 1    
    16    8    9 1    
    17    8   74 1    
    18    8   75 1    
    19    9   10 ar   
    20    9   14 ar   
    21   10   11 ar   
    22   10   76 1    
    23   11   12 ar   
    24   11   48 1    
    25   12   13 ar   
    26   12   77 1    
    27   13   14 ar   
    28   13   15 1    
    29   14   78 1    
    30   15   16 1    
    31   15   79 1    
    32   15   80 1    
    33   16   17 1    
    34   17   18 1    
    35   17   81 1    
    36   17   82 1    
    37   18   19 1    
    38   18   22 1    
    39   18   83 1    
    40   19   20 am   BACKBONE|DICT|INTERRES
    41   19   21 2    
    42   20   84 1    
    43   20   85 1    
    44   22   23 am   BACKBONE|DICT|INTERRES
    45   22   86 1    
    46   23   24 2    
    47   23   25 1    
    48   25   26 1    
    49   25   27 1    
    50   25   87 1    
    51   26   88 1    
    52   26   89 1    
    53   26   90 1    
    54   27   28 am   BACKBONE|DICT|INTERRES
    55   27   91 1    
    56   28   29 2    
    57   28   30 1    
    58   30   31 1    
    59   30   32 1    
    60   30   92 1    
    61   31   93 1    
    62   31   94 1    
    63   31   95 1    
    64   32   33 am   BACKBONE|DICT|INTERRES
    65   32   96 1    
    66   33   34 2    
    67   33   35 1    
    68   35   36 1    
    69   35   37 1    
    70   35   97 1    
    71   36   98 1    
    72   36   99 1    
    73   36  100 1    
    74   37   38 am   BACKBONE|DICT|INTERRES
    75   37  101 1    
    76   38   39 2    
    77   38   40 1    
    78   40   41 1    
    79   40   42 1    
    80   40  102 1    
    81   41  103 1    
    82   41  104 1    
    83   41  105 1    
    84   42   43 am   BACKBONE|DICT|INTERRES
    85   42  106 1    
    86   43   44 2    
    87   43   45 1    
    88   45   46 1    
    89   45   49 1    
    90   45  107 1    
    91   46   47 1    
    92   46  108 1    
    93   46  109 1    
    94   47   48 1    
    95   48  110 1    
    96   48  111 1    
    97   49   50 am   BACKBONE|DICT|INTERRES
    98   49  112 1    
    99   50   51 2    
   100   50   52 1    
   101   52   53 1    
   102   52   54 1    
   103   52  113 1    
   104   53  114 1    
   105   53  115 1    
   106   53  116 1    
   107   54   55 am   BACKBONE|DICT|INTERRES
   108   54  117 1    
   109   55   56 2    
   110   55   57 1    
   111   57   58 1    
   112   57   59 1    
   113   57  118 1    
   114   58  119 1    
   115   58  120 1    
   116   58  121 1    
   117   59   60 am   BACKBONE|DICT|INTERRES
   118   59  122 1    
   119   60   61 2    
   120   60   62 1    
   121   62   63 1    
   122   62   64 1    
   123   62  123 1    
   124   63  124 1    
   125   63  125 1    
   126   63  126 1    
   127   64   65 am   BACKBONE|DICT|INTERRES
   128   64  127 1    
   129   65   66 2    
@<TRIPOS>SUBSTRUCTURE
     1 UNK         1 GROUP             0       ****    0 ROOT    
