@<TRIPOS>MOLECULE
3R135
127   129    1
SMALL
USER_CHARGES


@<TRIPOS>ATOM
      1 CA        -82.0234   23.6944  -71.5518 C.3       0 UNK        -0.1998 
      2 C         -81.4146   24.6913  -72.5243 C.2       0 UNK         0.4909 
      3 O         -80.2510   24.5452  -72.8969 O.2       0 UNK        -0.5240 
      4 N         -82.1959   25.6906  -72.9570 N.am      1 UNK        -0.4739 
      5 CA        -81.7904   26.7924  -73.8459 C.3       1 UNK         0.0864 
      6 C6        -80.8322   27.8003  -73.1642 C.3       11 UNK        -0.0881 
      7 S7        -81.5120   28.5340  -71.6356 S.3       11 UNK        -0.2682 
      8 C8        -80.0696   28.4493  -70.5103 C.3       11 UNK         0.0289 
      9 C9        -78.7865   29.0982  -71.0389 C.ar      11 UNK        -0.0687 
     10 C10       -78.8071   30.1049  -72.0119 C.ar      11 UNK        -0.0823 
     11 C11       -77.6204   30.6134  -72.5444 C.ar      11 UNK        -0.0830 
     12 C12       -76.3963   30.1536  -72.0544 C.ar      11 UNK        -0.1021 
     13 C13       -76.3552   29.1902  -71.0406 C.ar      11 UNK        -0.0753 
     14 C14       -77.5523   28.6622  -70.5456 C.ar      11 UNK        -0.0933 
     15 C15       -75.0184   28.6865  -70.5156 C.3       11 UNK         0.0166 
     16 S16       -73.9794   30.0412  -69.8757 S.3       11 UNK        -0.2615 
     17 C17       -72.3207   29.2750  -69.9045 C.3       11 UNK        -0.0865 
     18 CA        -71.4322   29.8056  -71.0712 C.3       10 UNK         0.0862 
     19 C         -69.9491   29.3327  -70.9576 C.2       10 UNK         0.5551 
     20 N         -69.2615   29.0300  -72.0525 N.am      10 UNK        -0.7319 
     21 O         -69.3985   29.2736  -69.8606 O.2       10 UNK        -0.5018 
     22 N         -72.0480   29.6143  -72.3988 N.am      10 UNK        -0.4509 
     23 C         -72.3251   28.4383  -72.9761 C.2       10 UNK         0.4899 
     24 O         -72.0729   27.3467  -72.4619 O.2       10 UNK        -0.4839 
     25 CA        -73.0552   28.4723  -74.3328 C.3       9 UNK         0.0222 
     26 CB        -73.0602   29.8478  -75.0378 C.3       9 UNK        -0.1966 
     27 N         -72.5778   27.4171  -75.2331 N.am      9 UNK        -0.4218 
     28 C         -71.3220   27.2574  -75.6810 C.2       9 UNK         0.5020 
     29 O         -70.4090   28.0560  -75.4595 O.2       9 UNK        -0.5274 
     30 CA        -71.0022   25.9845  -76.4876 C.3       8 UNK         0.0270 
     31 CB        -70.2746   24.9625  -75.5977 C.3       8 UNK        -0.1976 
     32 N         -72.1692   25.3380  -77.0943 N.am      8 UNK        -0.4313 
     33 C         -72.8266   25.7940  -78.1679 C.2       8 UNK         0.5041 
     34 O         -72.5385   26.8430  -78.7469 O.2       8 UNK        -0.5577 
     35 CA        -73.9986   24.9515  -78.6958 C.3       7 UNK         0.0284 
     36 CB        -74.2966   23.6792  -77.8702 C.3       7 UNK        -0.1958 
     37 N         -75.1651   25.8224  -78.7434 N.am      7 UNK        -0.4454 
     38 C         -76.2993   25.6272  -79.4216 C.2       7 UNK         0.5089 
     39 O         -76.5006   24.6511  -80.1460 O.2       7 UNK        -0.5125 
     40 CA        -77.3922   26.7068  -79.2493 C.3       6 UNK         0.0408 
     41 CB        -78.7701   26.2475  -79.7564 C.3       6 UNK        -0.1791 
     42 N         -77.5155   27.1528  -77.8557 N.am      6 UNK        -0.4762 
     43 C         -76.7096   28.0455  -77.2645 C.2       6 UNK         0.5007 
     44 O         -75.7941   28.6232  -77.8507 O.2       6 UNK        -0.5032 
     45 CA        -76.9075   28.2736  -75.7586 C.3       5 UNK         0.0783 
     46 C46       -77.9245   29.4105  -75.4761 C.3       11 UNK        -0.0857 
     47 S47       -77.0630   31.0112  -75.2628 S.3       11 UNK        -0.2512 
     48 C48       -77.6773   31.6449  -73.6636 C.3       11 UNK         0.0225 
     49 N         -77.2093   27.0296  -75.0390 N.am      5 UNK        -0.4615 
     50 C         -76.2930   26.0830  -74.7838 C.2       4 UNK         0.5053 
     51 O         -75.1554   26.0853  -75.2567 O.2       4 UNK        -0.5105 
     52 CA        -76.6857   24.9793  -73.7939 C.3       4 UNK         0.0263 
     53 CB        -76.9953   25.5640  -72.4047 C.3       4 UNK        -0.1981 
     54 N         -77.8185   24.1826  -74.2576 N.am      4 UNK        -0.4224 
     55 C         -77.7138   23.1367  -75.0890 C.2       3 UNK         0.4895 
     56 O         -76.6580   22.7659  -75.6002 O.2       3 UNK        -0.5091 
     57 CA        -78.9994   22.3518  -75.3833 C.3       3 UNK         0.0250 
     58 CB        -79.3689   21.4389  -74.2014 C.3       3 UNK        -0.1996 
     59 N         -80.1112   23.2538  -75.6800 N.am      3 UNK        -0.4254 
     60 C         -80.4383   23.6592  -76.9144 C.2       2 UNK         0.5004 
     61 O         -79.8808   23.2508  -77.9327 O.2       2 UNK        -0.5226 
     62 CA        -81.5882   24.6749  -77.0586 C.3       2 UNK         0.0269 
     63 CB        -82.8340   23.9963  -77.6520 C.3       2 UNK        -0.1926 
     64 N         -81.9609   25.3364  -75.8053 N.am      2 UNK        -0.4687 
     65 C         -81.2319   26.2803  -75.1945 C.2       1 UNK         0.5165 
     66 O         -80.1537   26.6944  -75.6300 O.2       1 UNK        -0.5079 
     67 H67       -82.0006   22.6924  -71.9793 H         1 UNK         0.0900 
     68 H68       -81.4514   23.6826  -70.6245 H         1 UNK         0.0900 
     69 H69       -83.0575   23.9390  -71.3102 H         1 UNK         0.0900 
     70 H70       -83.1462   25.7465  -72.6174 H         1 UNK         0.2959 
     71 H71       -82.7033   27.3349  -74.0973 H         1 UNK         0.1079 
     72 H72       -79.8766   27.3226  -72.9466 H         1 UNK         0.0837 
     73 H73       -80.6180   28.6250  -73.8450 H         1 UNK         0.0837 
     74 H74       -80.3368   28.9240  -69.5656 H         1 UNK         0.0685 
     75 H75       -79.8820   27.3974  -70.2880 H         1 UNK         0.0685 
     76 H76       -79.7497   30.4733  -72.3901 H         1 UNK         0.1434 
     77 H77       -75.4746   30.5450  -72.4626 H         1 UNK         0.1329 
     78 H78       -77.5238   27.8950  -69.7837 H         1 UNK         0.1335 
     79 H79       -74.5120   28.1648  -71.3246 H         1 UNK         0.0680 
     80 H80       -75.1607   27.9524  -69.7210 H         1 UNK         0.0680 
     81 H81       -71.8537   29.4972  -68.9434 H         1 UNK         0.1032 
     82 H82       -72.4081   28.1881  -69.9438 H         1 UNK         0.1032 
     83 H83       -71.3707   30.8877  -70.9503 H         1 UNK         0.0461 
     84 H84       -68.3006   28.7385  -71.9682 H         1 UNK         0.3453 
     85 H85       -69.7047   29.0567  -72.9583 H         1 UNK         0.3453 
     86 H86       -72.2754   30.4617  -72.8976 H         1 UNK         0.2984 
     87 H87       -74.0890   28.2250  -74.0970 H         1 UNK         0.0554 
     88 H88       -73.5896   30.5973  -74.4483 H         1 UNK         0.0847 
     89 H89       -73.5715   29.7898  -75.9992 H         1 UNK         0.0847 
     90 H90       -72.0512   30.2173  -75.2244 H         1 UNK         0.0847 
     91 H91       -73.2647   26.6967  -75.4367 H         1 UNK         0.3141 
     92 H92       -70.3226   26.2764  -77.2914 H         1 UNK         0.0743 
     93 H93       -69.3753   25.3977  -75.1589 H         1 UNK         0.0784 
     94 H94       -70.9051   24.6233  -74.7746 H         1 UNK         0.0784 
     95 H95       -69.9627   24.0874  -76.1682 H         1 UNK         0.0784 
     96 H96       -72.4890   24.4804  -76.6672 H         1 UNK         0.3213 
     97 H97       -73.7458   24.6556  -79.7159 H         1 UNK         0.0855 
     98 H98       -74.5593   23.9168  -76.8389 H         1 UNK         0.0814 
     99 H99       -73.4409   23.0032  -77.8558 H         1 UNK         0.0814 
    100 H100      -75.1297   23.1173  -78.2927 H         1 UNK         0.0814 
    101 H101      -75.0645   26.7019  -78.2466 H         1 UNK         0.3105 
    102 H102      -77.0909   27.5584  -79.8628 H         1 UNK         0.0547 
    103 H103      -79.5236   27.0243  -79.6264 H         1 UNK         0.0837 
    104 H104      -78.7351   26.0066  -80.8196 H         1 UNK         0.0837 
    105 H105      -79.1107   25.3554  -79.2340 H         1 UNK         0.0837 
    106 H106      -78.2185   26.6983  -77.2869 H         1 UNK         0.3020 
    107 H107      -75.9353   28.5970  -75.3832 H         1 UNK         0.1245 
    108 H108      -78.4943   29.1863  -74.5781 H         1 UNK         0.0781 
    109 H109      -78.6721   29.5051  -76.2666 H         1 UNK         0.0781 
    110 H110      -78.6968   32.0076  -73.8037 H         1 UNK         0.0836 
    111 H111      -77.0842   32.5149  -73.3786 H         1 UNK         0.0836 
    112 H112      -78.1577   26.9136  -74.7066 H         1 UNK         0.3022 
    113 H113      -75.8203   24.3224  -73.6802 H         1 UNK         0.0747 
    114 H114      -77.8805   26.1993  -72.4131 H         1 UNK         0.0793 
    115 H115      -77.1651   24.7732  -71.6739 H         1 UNK         0.0793 
    116 H116      -76.1631   26.1680  -72.0412 H         1 UNK         0.0793 
    117 H117      -78.7250   24.3880  -73.8388 H         1 UNK         0.3047 
    118 H118      -78.8065   21.7089  -76.2453 H         1 UNK         0.0822 
    119 H119      -78.5624   20.7361  -73.9884 H         1 UNK         0.0807 
    120 H120      -80.2605   20.8512  -74.4198 H         1 UNK         0.0807 
    121 H121      -79.5559   22.0030  -73.2875 H         1 UNK         0.0807 
    122 H122      -80.5833   23.6704  -74.8881 H         1 UNK         0.2946 
    123 H123      -81.2495   25.4408  -77.7602 H         1 UNK         0.1144 
    124 H124      -83.6309   24.7177  -77.8341 H         1 UNK         0.0793 
    125 H125      -83.2249   23.2212  -76.9916 H         1 UNK         0.0793 
    126 H126      -82.6043   23.5239  -78.6083 H         1 UNK         0.0793 
    127 H127      -82.8186   25.0322  -75.3664 H         1 UNK         0.2896 
@<TRIPOS>BOND
     1    1    2 1    
     2    1   67 1    
     3    1   68 1    
     4    1   69 1    
     5    2    3 2    
     6    2    4 am   BACKBONE|DICT|INTERRES
     7    4    5 1    
     8    4   70 1    
     9    5    6 1    
    10    5   65 1    
    11    5   71 1    
    12    6    7 1    
    13    6   72 1    
    14    6   73 1    
    15    7    8 1    
    16    8    9 1    
    17    8   74 1    
    18    8   75 1    
    19    9   10 ar   
    20    9   14 ar   
    21   10   11 ar   
    22   10   76 1    
    23   11   12 ar   
    24   11   48 1    
    25   12   13 ar   
    26   12   77 1    
    27   13   14 ar   
    28   13   15 1    
    29   14   78 1    
    30   15   16 1    
    31   15   79 1    
    32   15   80 1    
    33   16   17 1    
    34   17   18 1    
    35   17   81 1    
    36   17   82 1    
    37   18   19 1    
    38   18   22 1    
    39   18   83 1    
    40   19   20 am   BACKBONE|DICT|INTERRES
    41   19   21 2    
    42   20   84 1    
    43   20   85 1    
    44   22   23 am   BACKBONE|DICT|INTERRES
    45   22   86 1    
    46   23   24 2    
    47   23   25 1    
    48   25   26 1    
    49   25   27 1    
    50   25   87 1    
    51   26   88 1    
    52   26   89 1    
    53   26   90 1    
    54   27   28 am   BACKBONE|DICT|INTERRES
    55   27   91 1    
    56   28   29 2    
    57   28   30 1    
    58   30   31 1    
    59   30   32 1    
    60   30   92 1    
    61   31   93 1    
    62   31   94 1    
    63   31   95 1    
    64   32   33 am   BACKBONE|DICT|INTERRES
    65   32   96 1    
    66   33   34 2    
    67   33   35 1    
    68   35   36 1    
    69   35   37 1    
    70   35   97 1    
    71   36   98 1    
    72   36   99 1    
    73   36  100 1    
    74   37   38 am   BACKBONE|DICT|INTERRES
    75   37  101 1    
    76   38   39 2    
    77   38   40 1    
    78   40   41 1    
    79   40   42 1    
    80   40  102 1    
    81   41  103 1    
    82   41  104 1    
    83   41  105 1    
    84   42   43 am   BACKBONE|DICT|INTERRES
    85   42  106 1    
    86   43   44 2    
    87   43   45 1    
    88   45   46 1    
    89   45   49 1    
    90   45  107 1    
    91   46   47 1    
    92   46  108 1    
    93   46  109 1    
    94   47   48 1    
    95   48  110 1    
    96   48  111 1    
    97   49   50 am   BACKBONE|DICT|INTERRES
    98   49  112 1    
    99   50   51 2    
   100   50   52 1    
   101   52   53 1    
   102   52   54 1    
   103   52  113 1    
   104   53  114 1    
   105   53  115 1    
   106   53  116 1    
   107   54   55 am   BACKBONE|DICT|INTERRES
   108   54  117 1    
   109   55   56 2    
   110   55   57 1    
   111   57   58 1    
   112   57   59 1    
   113   57  118 1    
   114   58  119 1    
   115   58  120 1    
   116   58  121 1    
   117   59   60 am   BACKBONE|DICT|INTERRES
   118   59  122 1    
   119   60   61 2    
   120   60   62 1    
   121   62   63 1    
   122   62   64 1    
   123   62  123 1    
   124   63  124 1    
   125   63  125 1    
   126   63  126 1    
   127   64   65 am   BACKBONE|DICT|INTERRES
   128   64  127 1    
   129   65   66 2    
@<TRIPOS>SUBSTRUCTURE
     1 UNK         1 GROUP             0       ****    0 ROOT    
