@<TRIPOS>MOLECULE
3R135
127   129    1
SMALL
USER_CHARGES


@<TRIPOS>ATOM
      1 CA        -78.7221   22.7092  -70.1160 C.3       0 UNK        -0.1998 
      2 C         -80.0765   22.9046  -70.7809 C.2       0 UNK         0.4909 
      3 O         -80.8763   21.9694  -70.8330 O.2       0 UNK        -0.5240 
      4 N         -80.3398   24.1165  -71.2828 N.am      1 UNK        -0.4739 
      5 CA        -81.5346   24.4648  -72.0570 C.3       1 UNK         0.0864 
      6 C6        -81.7976   25.9943  -72.0374 C.3       11 UNK        -0.0881 
      7 S7        -80.4241   27.0142  -72.6855 S.3       11 UNK        -0.2682 
      8 C8        -79.7270   27.6658  -71.1335 C.3       11 UNK         0.0289 
      9 C9        -78.5476   28.5973  -71.3752 C.ar      11 UNK        -0.0687 
     10 C10       -78.7223   29.7584  -72.1305 C.ar      11 UNK        -0.0823 
     11 C11       -77.6647   30.6499  -72.3242 C.ar      11 UNK        -0.0830 
     12 C12       -76.4305   30.3948  -71.7179 C.ar      11 UNK        -0.1021 
     13 C13       -76.2372   29.2325  -70.9623 C.ar      11 UNK        -0.0753 
     14 C14       -77.2976   28.3316  -70.8065 C.ar      11 UNK        -0.0933 
     15 C15       -74.9073   28.9695  -70.2640 C.3       11 UNK         0.0166 
     16 S16       -73.6088   28.3828  -71.4019 S.3       11 UNK        -0.2615 
     17 C17       -72.8762   29.9517  -71.9896 C.3       11 UNK        -0.0865 
     18 CA        -73.2145   30.2226  -73.4803 C.3       10 UNK         0.0862 
     19 C         -72.9879   31.6945  -73.9337 C.2       10 UNK         0.5551 
     20 N         -73.2065   31.9916  -75.2082 N.am      10 UNK        -0.7319 
     21 O         -72.6265   32.5648  -73.1449 O.2       10 UNK        -0.5018 
     22 N         -72.6169   29.2344  -74.3946 N.am      10 UNK        -0.4509 
     23 C         -71.3182   29.1403  -74.7117 C.2       10 UNK         0.4899 
     24 O         -70.4327   29.8330  -74.2065 O.2       10 UNK        -0.4839 
     25 CA        -70.9584   28.1016  -75.7926 C.3       9 UNK         0.0222 
     26 CB        -69.4372   27.8914  -75.9518 C.3       9 UNK        -0.1966 
     27 N         -71.6472   26.8193  -75.6103 N.am      9 UNK        -0.4218 
     28 C         -71.5678   25.9926  -74.5531 C.2       9 UNK         0.5020 
     29 O         -70.8439   26.1959  -73.5773 O.2       9 UNK        -0.5274 
     30 CA        -72.4294   24.7156  -74.5826 C.3       8 UNK         0.0270 
     31 CB        -73.2050   24.5315  -73.2643 C.3       8 UNK        -0.1976 
     32 N         -73.3735   24.7228  -75.7052 N.am      8 UNK        -0.4313 
     33 C         -73.2250   24.0055  -76.8268 C.2       8 UNK         0.5041 
     34 O         -72.3071   23.2040  -77.0071 O.2       8 UNK        -0.5577 
     35 CA        -74.2483   24.2160  -77.9565 C.3       7 UNK         0.0284 
     36 CB        -75.3706   23.1672  -77.8851 C.3       7 UNK        -0.1958 
     37 N         -74.8334   25.5589  -78.0314 N.am      7 UNK        -0.4454 
     38 C         -74.1556   26.6724  -78.3468 C.2       7 UNK         0.5089 
     39 O         -72.9278   26.7299  -78.4086 O.2       7 UNK        -0.5125 
     40 CA        -74.9866   27.9300  -78.6434 C.3       6 UNK         0.0408 
     41 CB        -75.7784   27.7670  -79.9517 C.3       6 UNK        -0.1791 
     42 N         -75.9096   28.2025  -77.5460 N.am      6 UNK        -0.4762 
     43 C         -75.6731   29.0734  -76.5551 C.2       6 UNK         0.5007 
     44 O         -74.7079   29.8382  -76.5359 O.2       6 UNK        -0.5032 
     45 CA        -76.6448   29.0424  -75.3502 C.3       5 UNK         0.0783 
     46 C46       -77.7292   30.1452  -75.4544 C.3       11 UNK        -0.0857 
     47 S47       -77.0944   31.7423  -74.8277 S.3       11 UNK        -0.2512 
     48 C48       -77.8719   31.8894  -73.1840 C.3       11 UNK         0.0225 
     49 N         -77.2010   27.7076  -75.0950 N.am      5 UNK        -0.4615 
     50 C         -76.4453   26.6307  -74.8303 C.2       4 UNK         0.5053 
     51 O         -75.2191   26.6719  -74.7372 O.2       4 UNK        -0.5105 
     52 CA        -77.1375   25.2606  -74.7413 C.3       4 UNK         0.0263 
     53 CB        -77.3489   24.8599  -73.2737 C.3       4 UNK        -0.1981 
     54 N         -78.3916   25.1385  -75.5016 N.am      4 UNK        -0.4224 
     55 C         -78.5142   25.3522  -76.8252 C.2       3 UNK         0.4895 
     56 O         -77.5858   25.7595  -77.5265 O.2       3 UNK        -0.5091 
     57 CA        -79.8708   25.0775  -77.4977 C.3       3 UNK         0.0250 
     58 CB        -79.7023   24.3954  -78.8696 C.3       3 UNK        -0.1996 
     59 N         -80.7531   24.2715  -76.6566 N.am      3 UNK        -0.4254 
     60 C         -82.0824   24.3907  -76.5765 C.2       2 UNK         0.5004 
     61 O         -82.7435   25.1974  -77.2314 O.2       2 UNK        -0.5226 
     62 CA        -82.7985   23.4575  -75.5822 C.3       2 UNK         0.0269 
     63 CB        -82.4455   21.9717  -75.8107 C.3       2 UNK        -0.1926 
     64 N         -82.6002   23.8515  -74.1794 N.am      2 UNK        -0.4687 
     65 C         -81.4470   23.9135  -73.4963 C.2       1 UNK         0.5165 
     66 O         -80.3514   23.5959  -73.9694 O.2       1 UNK        -0.5079 
     67 H67       -78.1161   23.6155  -70.1509 H         1 UNK         0.0900 
     68 H68       -78.1705   21.9138  -70.6182 H         1 UNK         0.0900 
     69 H69       -78.8531   22.4276  -69.0707 H         1 UNK         0.0900 
     70 H70       -79.6309   24.8328  -71.2515 H         1 UNK         0.2959 
     71 H71       -82.3894   23.9760  -71.5837 H         1 UNK         0.1079 
     72 H72       -82.0248   26.3058  -71.0166 H         1 UNK         0.0837 
     73 H73       -82.6948   26.2364  -72.6099 H         1 UNK         0.0837 
     74 H74       -80.5009   28.2152  -70.5952 H         1 UNK         0.0685 
     75 H75       -79.4346   26.8333  -70.4924 H         1 UNK         0.0685 
     76 H76       -79.6878   29.9621  -72.5734 H         1 UNK         0.1434 
     77 H77       -75.6218   31.1014  -71.8388 H         1 UNK         0.1329 
     78 H78       -77.1577   27.4384  -70.2132 H         1 UNK         0.1335 
     79 H79       -75.0398   28.2115  -69.4905 H         1 UNK         0.0680 
     80 H80       -74.5781   29.8668  -69.7387 H         1 UNK         0.0680 
     81 H81       -73.2276   30.7681  -71.3576 H         1 UNK         0.1032 
     82 H82       -71.7959   29.9132  -71.8432 H         1 UNK         0.1032 
     83 H83       -74.2884   30.0942  -73.5742 H         1 UNK         0.0461 
     84 H84       -73.0726   32.9353  -75.5333 H         1 UNK         0.3453 
     85 H85       -73.5778   31.2811  -75.8316 H         1 UNK         0.3453 
     86 H86       -73.2721   28.6294  -74.8687 H         1 UNK         0.2984 
     87 H87       -71.3305   28.5092  -76.7338 H         1 UNK         0.0554 
     88 H88       -69.2163   27.1755  -76.7434 H         1 UNK         0.0847 
     89 H89       -68.9793   27.5271  -75.0316 H         1 UNK         0.0847 
     90 H90       -68.9391   28.8257  -76.2136 H         1 UNK         0.0847 
     91 H91       -72.2413   26.5423  -76.3836 H         1 UNK         0.3141 
     92 H92       -71.7392   23.8749  -74.6761 H         1 UNK         0.0743 
     93 H93       -73.7956   25.4121  -73.0114 H         1 UNK         0.0784 
     94 H94       -73.8779   23.6753  -73.3119 H         1 UNK         0.0784 
     95 H95       -72.5203   24.3591  -72.4331 H         1 UNK         0.0784 
     96 H96       -74.1430   25.3833  -75.6200 H         1 UNK         0.3213 
     97 H97       -73.7116   24.0555  -78.8942 H         1 UNK         0.0855 
     98 H98       -74.9600   22.1566  -77.8981 H         1 UNK         0.0814 
     99 H99       -76.0471   23.2514  -78.7359 H         1 UNK         0.0814 
    100 H100      -75.9643   23.2628  -76.9777 H         1 UNK         0.0814 
    101 H101      -75.8479   25.6148  -77.9524 H         1 UNK         0.3105 
    102 H102      -74.2961   28.7657  -78.7765 H         1 UNK         0.0547 
    103 H103      -76.3117   28.6833  -80.2048 H         1 UNK         0.0837 
    104 H104      -75.1122   27.5401  -80.7851 H         1 UNK         0.0837 
    105 H105      -76.5119   26.9619  -79.8910 H         1 UNK         0.0837 
    106 H106      -76.6954   27.5666  -77.4536 H         1 UNK         0.3020 
    107 H107      -76.0476   29.2469  -74.4633 H         1 UNK         0.1245 
    108 H108      -78.6196   29.8730  -74.8878 H         1 UNK         0.0781 
    109 H109      -78.0727   30.2747  -76.4826 H         1 UNK         0.0781 
    110 H110      -78.9356   32.0949  -73.3142 H         1 UNK         0.0836 
    111 H111      -77.4567   32.7595  -72.6734 H         1 UNK         0.0836 
    112 H112      -78.2025   27.5993  -75.1559 H         1 UNK         0.3022 
    113 H113      -76.4431   24.5380  -75.1696 H         1 UNK         0.0747 
    114 H114      -77.7626   23.8550  -73.1887 H         1 UNK         0.0793 
    115 H115      -78.0157   25.5481  -72.7596 H         1 UNK         0.0793 
    116 H116      -76.4032   24.8653  -72.7298 H         1 UNK         0.0793 
    117 H117      -79.1913   24.7962  -74.9771 H         1 UNK         0.3047 
    118 H118      -80.3259   26.0577  -77.6547 H         1 UNK         0.0822 
    119 H119      -79.0932   25.0016  -79.5417 H         1 UNK         0.0807 
    120 H120      -80.6645   24.2451  -79.3592 H         1 UNK         0.0807 
    121 H121      -79.2177   23.4228  -78.7759 H         1 UNK         0.0807 
    122 H122      -80.3082   23.6211  -76.0179 H         1 UNK         0.2946 
    123 H123      -83.8670   23.5652  -75.7794 H         1 UNK         0.1144 
    124 H124      -82.6185   21.6866  -76.8494 H         1 UNK         0.0793 
    125 H125      -81.4037   21.7463  -75.5824 H         1 UNK         0.0793 
    126 H126      -83.0654   21.3229  -75.1918 H         1 UNK         0.0793 
    127 H127      -83.4394   24.1631  -73.7094 H         1 UNK         0.2896 
@<TRIPOS>BOND
     1    1    2 1    
     2    1   67 1    
     3    1   68 1    
     4    1   69 1    
     5    2    3 2    
     6    2    4 am   BACKBONE|DICT|INTERRES
     7    4    5 1    
     8    4   70 1    
     9    5    6 1    
    10    5   65 1    
    11    5   71 1    
    12    6    7 1    
    13    6   72 1    
    14    6   73 1    
    15    7    8 1    
    16    8    9 1    
    17    8   74 1    
    18    8   75 1    
    19    9   10 ar   
    20    9   14 ar   
    21   10   11 ar   
    22   10   76 1    
    23   11   12 ar   
    24   11   48 1    
    25   12   13 ar   
    26   12   77 1    
    27   13   14 ar   
    28   13   15 1    
    29   14   78 1    
    30   15   16 1    
    31   15   79 1    
    32   15   80 1    
    33   16   17 1    
    34   17   18 1    
    35   17   81 1    
    36   17   82 1    
    37   18   19 1    
    38   18   22 1    
    39   18   83 1    
    40   19   20 am   BACKBONE|DICT|INTERRES
    41   19   21 2    
    42   20   84 1    
    43   20   85 1    
    44   22   23 am   BACKBONE|DICT|INTERRES
    45   22   86 1    
    46   23   24 2    
    47   23   25 1    
    48   25   26 1    
    49   25   27 1    
    50   25   87 1    
    51   26   88 1    
    52   26   89 1    
    53   26   90 1    
    54   27   28 am   BACKBONE|DICT|INTERRES
    55   27   91 1    
    56   28   29 2    
    57   28   30 1    
    58   30   31 1    
    59   30   32 1    
    60   30   92 1    
    61   31   93 1    
    62   31   94 1    
    63   31   95 1    
    64   32   33 am   BACKBONE|DICT|INTERRES
    65   32   96 1    
    66   33   34 2    
    67   33   35 1    
    68   35   36 1    
    69   35   37 1    
    70   35   97 1    
    71   36   98 1    
    72   36   99 1    
    73   36  100 1    
    74   37   38 am   BACKBONE|DICT|INTERRES
    75   37  101 1    
    76   38   39 2    
    77   38   40 1    
    78   40   41 1    
    79   40   42 1    
    80   40  102 1    
    81   41  103 1    
    82   41  104 1    
    83   41  105 1    
    84   42   43 am   BACKBONE|DICT|INTERRES
    85   42  106 1    
    86   43   44 2    
    87   43   45 1    
    88   45   46 1    
    89   45   49 1    
    90   45  107 1    
    91   46   47 1    
    92   46  108 1    
    93   46  109 1    
    94   47   48 1    
    95   48  110 1    
    96   48  111 1    
    97   49   50 am   BACKBONE|DICT|INTERRES
    98   49  112 1    
    99   50   51 2    
   100   50   52 1    
   101   52   53 1    
   102   52   54 1    
   103   52  113 1    
   104   53  114 1    
   105   53  115 1    
   106   53  116 1    
   107   54   55 am   BACKBONE|DICT|INTERRES
   108   54  117 1    
   109   55   56 2    
   110   55   57 1    
   111   57   58 1    
   112   57   59 1    
   113   57  118 1    
   114   58  119 1    
   115   58  120 1    
   116   58  121 1    
   117   59   60 am   BACKBONE|DICT|INTERRES
   118   59  122 1    
   119   60   61 2    
   120   60   62 1    
   121   62   63 1    
   122   62   64 1    
   123   62  123 1    
   124   63  124 1    
   125   63  125 1    
   126   63  126 1    
   127   64   65 am   BACKBONE|DICT|INTERRES
   128   64  127 1    
   129   65   66 2    
@<TRIPOS>SUBSTRUCTURE
     1 UNK         1 GROUP             0       ****    0 ROOT    
