@<TRIPOS>MOLECULE
3R135
127   129    1
SMALL
USER_CHARGES


@<TRIPOS>ATOM
      1 CA        -83.4176   27.4567  -71.9092 C.3       0 UNK        -0.1998 
      2 C         -82.4932   27.3373  -73.1104 C.2       0 UNK         0.4909 
      3 O         -81.7433   26.3676  -73.2077 O.2       0 UNK        -0.5240 
      4 N         -82.5546   28.3075  -74.0350 N.am      1 UNK        -0.4739 
      5 CA        -81.7057   28.4376  -75.2351 C.3       1 UNK         0.0864 
      6 C6        -80.2173   28.7260  -74.8943 C.3       11 UNK        -0.0881 
      7 S7        -79.9724   30.3061  -74.0194 S.3       11 UNK        -0.2682 
      8 C8        -79.7122   29.7652  -72.2988 C.3       11 UNK         0.0289 
      9 C9        -78.4535   28.9272  -72.0992 C.ar      11 UNK        -0.0687 
     10 C10       -78.5406   27.6688  -71.4940 C.ar      11 UNK        -0.0823 
     11 C11       -77.3853   26.9322  -71.2127 C.ar      11 UNK        -0.0830 
     12 C12       -76.1369   27.4527  -71.5620 C.ar      11 UNK        -0.1021 
     13 C13       -76.0364   28.6967  -72.1907 C.ar      11 UNK        -0.0753 
     14 C14       -77.1977   29.4299  -72.4560 C.ar      11 UNK        -0.0933 
     15 C15       -74.6712   29.2503  -72.5669 C.3       11 UNK         0.0166 
     16 S16       -74.2374   30.6866  -71.5330 S.3       11 UNK        -0.2615 
     17 C17       -72.4131   30.6258  -71.5147 C.3       11 UNK        -0.0865 
     18 CA        -71.7599   31.4052  -72.6857 C.3       10 UNK         0.0862 
     19 C         -70.2317   31.5859  -72.4376 C.2       10 UNK         0.5551 
     20 N         -69.3444   30.9654  -73.2072 N.am      10 UNK        -0.7319 
     21 O         -69.8454   32.3106  -71.5238 O.2       10 UNK        -0.5018 
     22 N         -72.0945   30.7901  -73.9770 N.am      10 UNK        -0.4509 
     23 C         -71.9368   31.3573  -75.1784 C.2       10 UNK         0.4899 
     24 O         -71.6180   32.5360  -75.3414 O.2       10 UNK        -0.4839 
     25 CA        -72.1663   30.4425  -76.4016 C.3       9 UNK         0.0222 
     26 CB        -71.3157   30.8655  -77.6175 C.3       9 UNK        -0.1966 
     27 N         -71.9839   29.0082  -76.1225 N.am      9 UNK        -0.4218 
     28 C         -70.8782   28.4044  -75.6486 C.2       9 UNK         0.5020 
     29 O         -69.8438   29.0077  -75.3597 O.2       9 UNK        -0.5274 
     30 CA        -70.9359   26.8846  -75.3995 C.3       8 UNK         0.0270 
     31 CB        -71.0507   26.5998  -73.8925 C.3       8 UNK        -0.1976 
     32 N         -72.0378   26.2206  -76.0987 N.am      8 UNK        -0.4313 
     33 C         -72.0838   26.0275  -77.4259 C.2       8 UNK         0.5041 
     34 O         -71.1467   26.2859  -78.1822 O.2       8 UNK        -0.5577 
     35 CA        -73.3953   25.4847  -78.0262 C.3       7 UNK         0.0284 
     36 CB        -73.2407   24.0011  -78.3961 C.3       7 UNK        -0.1958 
     37 N         -74.5701   25.6472  -77.1631 N.am      7 UNK        -0.4454 
     38 C         -75.0685   26.8190  -76.7356 C.2       7 UNK         0.5089 
     39 O         -74.5881   27.9136  -77.0311 O.2       7 UNK        -0.5125 
     40 CA        -76.2709   26.7621  -75.7759 C.3       6 UNK         0.0408 
     41 CB        -77.5703   26.8853  -76.5808 C.3       6 UNK        -0.1791 
     42 N         -76.3258   25.5412  -74.9660 N.am      6 UNK        -0.4762 
     43 C         -75.3578   25.1092  -74.1404 C.2       6 UNK         0.5007 
     44 O         -74.3164   25.7347  -73.9330 O.2       6 UNK        -0.5032 
     45 CA        -75.5302   23.7146  -73.4984 C.3       5 UNK         0.0783 
     46 C46       -75.8656   23.8014  -71.9881 C.3       11 UNK        -0.0857 
     47 S47       -77.6156   24.1957  -71.6333 S.3       11 UNK        -0.2512 
     48 C48       -77.4868   25.5998  -70.4850 C.3       11 UNK         0.0225 
     49 N         -76.4661   22.8419  -74.2175 N.am      5 UNK        -0.4615 
     50 C         -76.3400   22.4297  -75.4854 C.2       4 UNK         0.5053 
     51 O         -75.3677   22.6944  -76.1924 O.2       4 UNK        -0.5105 
     52 CA        -77.5089   21.6243  -76.0826 C.3       4 UNK         0.0263 
     53 CB        -77.1924   20.1207  -76.0459 C.3       4 UNK        -0.1981 
     54 N         -78.8132   21.8598  -75.4461 N.am      4 UNK        -0.4224 
     55 C         -79.4488   23.0395  -75.3904 C.2       3 UNK         0.4895 
     56 O         -78.9633   24.0974  -75.7948 O.2       3 UNK        -0.5091 
     57 CA        -80.8383   23.0310  -74.7306 C.3       3 UNK         0.0250 
     58 CB        -80.7178   23.2010  -73.2092 C.3       3 UNK        -0.1996 
     59 N         -81.7018   24.0886  -75.2605 N.am      3 UNK        -0.4254 
     60 C         -82.2813   24.0530  -76.4704 C.2       2 UNK         0.5004 
     61 O         -82.1744   23.1007  -77.2452 O.2       2 UNK        -0.5226 
     62 CA        -83.1547   25.2515  -76.8916 C.3       2 UNK         0.0269 
     63 CB        -84.6462   24.8883  -76.7962 C.3       2 UNK        -0.1926 
     64 N         -82.9126   26.4599  -76.1012 N.am      2 UNK        -0.4687 
     65 C         -81.8503   27.2655  -76.2402 C.2       1 UNK         0.5165 
     66 O         -81.0162   27.1188  -77.1344 O.2       1 UNK        -0.5079 
     67 H67       -84.0820   26.5944  -71.8604 H         1 UNK         0.0900 
     68 H68       -84.0302   28.3570  -71.9527 H         1 UNK         0.0900 
     69 H69       -82.8325   27.4883  -70.9905 H         1 UNK         0.0900 
     70 H70       -83.2103   29.0651  -73.9005 H         1 UNK         0.2959 
     71 H71       -82.0876   29.3060  -75.7744 H         1 UNK         0.1079 
     72 H72       -79.7828   27.9047  -74.3224 H         1 UNK         0.0837 
     73 H73       -79.6268   28.8073  -75.8075 H         1 UNK         0.0837 
     74 H74       -80.5969   29.2277  -71.9580 H         1 UNK         0.0685 
     75 H75       -79.6380   30.6518  -71.6679 H         1 UNK         0.0685 
     76 H76       -79.5076   27.2718  -71.2154 H         1 UNK         0.1434 
     77 H77       -75.2401   26.8907  -71.3417 H         1 UNK         0.1329 
     78 H78       -77.1215   30.4036  -72.9204 H         1 UNK         0.1335 
     79 H79       -73.9113   28.4738  -72.4682 H         1 UNK         0.0680 
     80 H80       -74.6779   29.5462  -73.6169 H         1 UNK         0.0680 
     81 H81       -72.1016   31.0526  -70.5590 H         1 UNK         0.1032 
     82 H82       -72.0719   29.5891  -71.4960 H         1 UNK         0.1032 
     83 H83       -72.1814   32.4123  -72.6902 H         1 UNK         0.0461 
     84 H84       -69.6360   30.3571  -73.9663 H         1 UNK         0.3453 
     85 H85       -68.3623   31.1008  -73.0288 H         1 UNK         0.3453 
     86 H86       -72.3473   29.8156  -73.9498 H         1 UNK         0.2984 
     87 H87       -73.2156   30.5630  -76.6743 H         1 UNK         0.0554 
     88 H88       -71.5030   30.2201  -78.4757 H         1 UNK         0.0847 
     89 H89       -70.2485   30.8280  -77.3962 H         1 UNK         0.0847 
     90 H90       -71.5484   31.8856  -77.9253 H         1 UNK         0.0847 
     91 H91       -72.7930   28.4317  -76.3379 H         1 UNK         0.3141 
     92 H92       -69.9963   26.4587  -75.7577 H         1 UNK         0.0743 
     93 H93       -70.2098   27.0316  -73.3477 H         1 UNK         0.0784 
     94 H94       -71.9631   27.0207  -73.4687 H         1 UNK         0.0784 
     95 H95       -71.0511   25.5288  -73.6892 H         1 UNK         0.0784 
     96 H96       -72.8483   25.9760  -75.5400 H         1 UNK         0.3213 
     97 H97       -73.5851   26.0484  -78.9420 H         1 UNK         0.0855 
     98 H98       -72.4115   23.8552  -79.0898 H         1 UNK         0.0814 
     99 H99       -74.1383   23.6146  -78.8794 H         1 UNK         0.0814 
    100 H100      -73.0421   23.3861  -77.5174 H         1 UNK         0.0814 
    101 H101      -75.0118   24.7933  -76.8407 H         1 UNK         0.3105 
    102 H102      -76.2012   27.6083  -75.0896 H         1 UNK         0.0547 
    103 H103      -77.6451   26.1148  -77.3495 H         1 UNK         0.0837 
    104 H104      -78.4431   26.7831  -75.9388 H         1 UNK         0.0837 
    105 H105      -77.6349   27.8532  -77.0791 H         1 UNK         0.0837 
    106 H106      -77.1507   24.9619  -75.0875 H         1 UNK         0.3020 
    107 H107      -74.5482   23.2429  -73.5817 H         1 UNK         0.1245 
    108 H108      -75.2040   24.5078  -71.4843 H         1 UNK         0.0781 
    109 H109      -75.6572   22.8366  -71.5232 H         1 UNK         0.0781 
    110 H110      -76.6369   25.4616  -69.8149 H         1 UNK         0.0836 
    111 H111      -78.3702   25.6005  -69.8446 H         1 UNK         0.0836 
    112 H112      -77.3096   22.6036  -73.7165 H         1 UNK         0.3022 
    113 H113      -77.6004   21.9279  -77.1276 H         1 UNK         0.0747 
    114 H114      -77.9559   19.5402  -76.5643 H         1 UNK         0.0793 
    115 H115      -76.2409   19.9096  -76.5366 H         1 UNK         0.0793 
    116 H116      -77.1210   19.7478  -75.0233 H         1 UNK         0.0793 
    117 H117      -79.2771   21.0457  -75.0685 H         1 UNK         0.3047 
    118 H118      -81.3134   22.0687  -74.9335 H         1 UNK         0.0822 
    119 H119      -80.1036   22.4149  -72.7684 H         1 UNK         0.0807 
    120 H120      -81.6941   23.1597  -72.7261 H         1 UNK         0.0807 
    121 H121      -80.2610   24.1570  -72.9513 H         1 UNK         0.0807 
    122 H122      -81.7915   24.9246  -74.6917 H         1 UNK         0.2946 
    123 H123      -82.9206   25.4668  -77.9369 H         1 UNK         0.1144 
    124 H124      -84.8738   24.0093  -77.4010 H         1 UNK         0.0793 
    125 H125      -85.2768   25.7001  -77.1591 H         1 UNK         0.0793 
    126 H126      -84.9423   24.6635  -75.7708 H         1 UNK         0.0793 
    127 H127      -83.5522   26.6491  -75.3430 H         1 UNK         0.2896 
@<TRIPOS>BOND
     1    1    2 1    
     2    1   67 1    
     3    1   68 1    
     4    1   69 1    
     5    2    3 2    
     6    2    4 am   BACKBONE|DICT|INTERRES
     7    4    5 1    
     8    4   70 1    
     9    5    6 1    
    10    5   65 1    
    11    5   71 1    
    12    6    7 1    
    13    6   72 1    
    14    6   73 1    
    15    7    8 1    
    16    8    9 1    
    17    8   74 1    
    18    8   75 1    
    19    9   10 ar   
    20    9   14 ar   
    21   10   11 ar   
    22   10   76 1    
    23   11   12 ar   
    24   11   48 1    
    25   12   13 ar   
    26   12   77 1    
    27   13   14 ar   
    28   13   15 1    
    29   14   78 1    
    30   15   16 1    
    31   15   79 1    
    32   15   80 1    
    33   16   17 1    
    34   17   18 1    
    35   17   81 1    
    36   17   82 1    
    37   18   19 1    
    38   18   22 1    
    39   18   83 1    
    40   19   20 am   BACKBONE|DICT|INTERRES
    41   19   21 2    
    42   20   84 1    
    43   20   85 1    
    44   22   23 am   BACKBONE|DICT|INTERRES
    45   22   86 1    
    46   23   24 2    
    47   23   25 1    
    48   25   26 1    
    49   25   27 1    
    50   25   87 1    
    51   26   88 1    
    52   26   89 1    
    53   26   90 1    
    54   27   28 am   BACKBONE|DICT|INTERRES
    55   27   91 1    
    56   28   29 2    
    57   28   30 1    
    58   30   31 1    
    59   30   32 1    
    60   30   92 1    
    61   31   93 1    
    62   31   94 1    
    63   31   95 1    
    64   32   33 am   BACKBONE|DICT|INTERRES
    65   32   96 1    
    66   33   34 2    
    67   33   35 1    
    68   35   36 1    
    69   35   37 1    
    70   35   97 1    
    71   36   98 1    
    72   36   99 1    
    73   36  100 1    
    74   37   38 am   BACKBONE|DICT|INTERRES
    75   37  101 1    
    76   38   39 2    
    77   38   40 1    
    78   40   41 1    
    79   40   42 1    
    80   40  102 1    
    81   41  103 1    
    82   41  104 1    
    83   41  105 1    
    84   42   43 am   BACKBONE|DICT|INTERRES
    85   42  106 1    
    86   43   44 2    
    87   43   45 1    
    88   45   46 1    
    89   45   49 1    
    90   45  107 1    
    91   46   47 1    
    92   46  108 1    
    93   46  109 1    
    94   47   48 1    
    95   48  110 1    
    96   48  111 1    
    97   49   50 am   BACKBONE|DICT|INTERRES
    98   49  112 1    
    99   50   51 2    
   100   50   52 1    
   101   52   53 1    
   102   52   54 1    
   103   52  113 1    
   104   53  114 1    
   105   53  115 1    
   106   53  116 1    
   107   54   55 am   BACKBONE|DICT|INTERRES
   108   54  117 1    
   109   55   56 2    
   110   55   57 1    
   111   57   58 1    
   112   57   59 1    
   113   57  118 1    
   114   58  119 1    
   115   58  120 1    
   116   58  121 1    
   117   59   60 am   BACKBONE|DICT|INTERRES
   118   59  122 1    
   119   60   61 2    
   120   60   62 1    
   121   62   63 1    
   122   62   64 1    
   123   62  123 1    
   124   63  124 1    
   125   63  125 1    
   126   63  126 1    
   127   64   65 am   BACKBONE|DICT|INTERRES
   128   64  127 1    
   129   65   66 2    
@<TRIPOS>SUBSTRUCTURE
     1 UNK         1 GROUP             0       ****    0 ROOT    
