@<TRIPOS>MOLECULE
3R135
127   129    1
SMALL
USER_CHARGES


@<TRIPOS>ATOM
      1 CA        -85.0329   26.3925  -71.5568 C.3       0 UNK        -0.1998 
      2 C         -83.7327   26.7094  -72.2795 C.2       0 UNK         0.4909 
      3 O         -83.6898   27.6391  -73.0868 O.2       0 UNK        -0.5240 
      4 N         -82.6690   25.9468  -71.9970 N.am      1 UNK        -0.4739 
      5 CA        -81.3486   26.0855  -72.6168 C.3       1 UNK         0.0864 
      6 C6        -80.2217   25.5124  -71.7164 C.3       11 UNK        -0.0881 
      7 S7        -80.1002   26.3349  -70.0900 S.3       11 UNK        -0.2682 
      8 C8        -78.2953   26.6061  -69.9321 C.3       11 UNK         0.0289 
      9 C9        -77.7416   27.8575  -70.6205 C.ar      11 UNK        -0.0687 
     10 C10       -78.4442   28.5436  -71.6175 C.ar      11 UNK        -0.0823 
     11 C11       -77.9058   29.6767  -72.2281 C.ar      11 UNK        -0.0830 
     12 C12       -76.6582   30.1506  -71.8193 C.ar      11 UNK        -0.1021 
     13 C13       -75.9363   29.4802  -70.8282 C.ar      11 UNK        -0.0753 
     14 C14       -76.4800   28.3316  -70.2415 C.ar      11 UNK        -0.0933 
     15 C15       -74.5800   30.0054  -70.3767 C.3       11 UNK         0.0166 
     16 S16       -73.2388   29.4568  -71.4781 S.3       11 UNK        -0.2615 
     17 C17       -73.4040   30.6199  -72.8822 C.3       11 UNK        -0.0865 
     18 CA        -72.0516   31.0976  -73.4753 C.3       10 UNK         0.0862 
     19 C         -71.2835   32.0612  -72.5255 C.2       10 UNK         0.5551 
     20 N         -71.7439   33.2990  -72.4025 N.am      10 UNK        -0.7319 
     21 O         -70.2964   31.6994  -71.8866 O.2       10 UNK        -0.5018 
     22 N         -71.2500   29.9560  -73.9268 N.am      10 UNK        -0.4509 
     23 C         -70.2178   30.0089  -74.7770 C.2       10 UNK         0.4899 
     24 O         -69.8335   31.0417  -75.3270 O.2       10 UNK        -0.4839 
     25 CA        -69.4908   28.6823  -75.0782 C.3       9 UNK         0.0222 
     26 CB        -68.1495   28.6260  -74.3283 C.3       9 UNK        -0.1966 
     27 N         -70.2795   27.4895  -74.7441 N.am      9 UNK        -0.4218 
     28 C         -71.3787   27.0922  -75.4005 C.2       9 UNK         0.5020 
     29 O         -71.8197   27.6586  -76.4029 O.2       9 UNK        -0.5274 
     30 CA        -72.1266   25.8971  -74.7834 C.3       8 UNK         0.0270 
     31 CB        -72.9546   26.3552  -73.5708 C.3       8 UNK        -0.1976 
     32 N         -73.0099   25.2259  -75.7398 N.am      8 UNK        -0.4313 
     33 C         -72.5848   24.4831  -76.7708 C.2       8 UNK         0.5041 
     34 O         -71.3967   24.2451  -76.9976 O.2       8 UNK        -0.5577 
     35 CA        -73.6541   23.8731  -77.6930 C.3       7 UNK         0.0284 
     36 CB        -74.1012   22.5046  -77.1551 C.3       7 UNK        -0.1958 
     37 N         -74.8248   24.7332  -77.8873 N.am      7 UNK        -0.4454 
     38 C         -74.8266   25.8535  -78.6243 C.2       7 UNK         0.5089 
     39 O         -73.8430   26.2737  -79.2344 O.2       7 UNK        -0.5125 
     40 CA        -76.1521   26.6335  -78.7140 C.3       6 UNK         0.0408 
     41 CB        -77.0613   26.0414  -79.8025 C.3       6 UNK        -0.1791 
     42 N         -76.8814   26.6885  -77.4456 N.am      6 UNK        -0.4762 
     43 C         -76.4567   27.3366  -76.3495 C.2       6 UNK         0.5007 
     44 O         -75.4118   27.9841  -76.2956 O.2       6 UNK        -0.5032 
     45 CA        -77.3355   27.1981  -75.0886 C.3       5 UNK         0.0783 
     46 C46       -78.5441   28.1714  -75.1183 C.3       11 UNK        -0.0857 
     47 S47       -78.0631   29.9296  -74.9789 S.3       11 UNK        -0.2512 
     48 C48       -78.6762   30.3892  -73.3280 C.3       11 UNK         0.0225 
     49 N         -77.7549   25.8008  -74.9136 N.am      5 UNK        -0.4615 
     50 C         -76.9134   24.7939  -74.6295 C.2       4 UNK         0.5053 
     51 O         -75.7195   24.9556  -74.3873 O.2       4 UNK        -0.5105 
     52 CA        -77.4661   23.3597  -74.6845 C.3       4 UNK         0.0263 
     53 CB        -77.8996   22.8656  -73.2970 C.3       4 UNK        -0.1981 
     54 N         -78.5639   23.2149  -75.6432 N.am      4 UNK        -0.4224 
     55 C         -78.3781   23.1906  -76.9718 C.2       3 UNK         0.4895 
     56 O         -77.2699   23.2522  -77.5011 O.2       3 UNK        -0.5091 
     57 CA        -79.6257   23.1351  -77.8701 C.3       3 UNK         0.0250 
     58 CB        -80.0219   21.6771  -78.1496 C.3       3 UNK        -0.1996 
     59 N         -80.7775   23.8601  -77.3294 N.am      3 UNK        -0.4254 
     60 C         -80.7971   25.1686  -77.0405 C.2       2 UNK         0.5004 
     61 O         -79.8331   25.9161  -77.2131 O.2       2 UNK        -0.5226 
     62 CA        -82.0832   25.7351  -76.4065 C.3       2 UNK         0.0269 
     63 CB        -83.2998   24.7856  -76.4969 C.3       2 UNK        -0.1926 
     64 N         -81.8836   26.1524  -75.0116 N.am      2 UNK        -0.4687 
     65 C         -81.3620   25.4257  -74.0114 C.2       1 UNK         0.5165 
     66 O         -80.9302   24.2793  -74.1500 O.2       1 UNK        -0.5079 
     67 H67       -85.3645   27.2589  -70.9851 H         1 UNK         0.0900 
     68 H68       -85.8106   26.1412  -72.2775 H         1 UNK         0.0900 
     69 H69       -84.9233   25.5542  -70.8691 H         1 UNK         0.0900 
     70 H70       -82.7595   25.1924  -71.3312 H         1 UNK         0.2959 
     71 H71       -81.1525   27.1479  -72.7666 H         1 UNK         0.1079 
     72 H72       -80.3775   24.4472  -71.5359 H         1 UNK         0.0837 
     73 H73       -79.2604   25.6018  -72.2257 H         1 UNK         0.0837 
     74 H74       -78.0721   26.6697  -68.8660 H         1 UNK         0.0685 
     75 H75       -77.7627   25.7287  -70.3017 H         1 UNK         0.0685 
     76 H76       -79.4176   28.2070  -71.9280 H         1 UNK         0.1434 
     77 H77       -76.2505   31.0384  -72.2810 H         1 UNK         0.1329 
     78 H78       -75.9214   27.8099  -69.4761 H         1 UNK         0.1335 
     79 H79       -74.5945   31.0946  -70.3149 H         1 UNK         0.0680 
     80 H80       -74.3630   29.6519  -69.3675 H         1 UNK         0.0680 
     81 H81       -73.9879   30.1225  -73.6590 H         1 UNK         0.1032 
     82 H82       -73.9973   31.4843  -72.5819 H         1 UNK         0.1032 
     83 H83       -72.2863   31.6774  -74.3706 H         1 UNK         0.0461 
     84 H84       -72.5485   33.6132  -72.9222 H         1 UNK         0.3453 
     85 H85       -71.2671   33.9384  -71.7859 H         1 UNK         0.3453 
     86 H86       -71.4716   29.0741  -73.4912 H         1 UNK         0.2984 
     87 H87       -69.2829   28.6602  -76.1500 H         1 UNK         0.0554 
     88 H88       -67.5231   29.4813  -74.5856 H         1 UNK         0.0847 
     89 H89       -67.5868   27.7279  -74.5838 H         1 UNK         0.0847 
     90 H90       -68.2897   28.6412  -73.2466 H         1 UNK         0.0847 
     91 H91       -69.9844   26.9668  -73.9312 H         1 UNK         0.3141 
     92 H92       -71.3866   25.1697  -74.4426 H         1 UNK         0.0743 
     93 H93       -73.7265   27.0719  -73.8569 H         1 UNK         0.0784 
     94 H94       -73.4453   25.5119  -73.0847 H         1 UNK         0.0784 
     95 H95       -72.3273   26.8317  -72.8172 H         1 UNK         0.0784 
     96 H96       -74.0061   25.3539  -75.6025 H         1 UNK         0.3213 
     97 H97       -73.1908   23.7139  -78.6693 H         1 UNK         0.0855 
     98 H98       -74.5794   22.5932  -76.1797 H         1 UNK         0.0814 
     99 H99       -73.2491   21.8332  -77.0404 H         1 UNK         0.0814 
    100 H100      -74.8048   22.0209  -77.8329 H         1 UNK         0.0814 
    101 H101      -75.7073   24.3993  -77.5098 H         1 UNK         0.3105 
    102 H102      -75.9121   27.6599  -78.9995 H         1 UNK         0.0547 
    103 H103      -76.5587   26.0408  -80.7705 H         1 UNK         0.0837 
    104 H104      -77.3409   25.0113  -79.5815 H         1 UNK         0.0837 
    105 H105      -77.9781   26.6206  -79.9134 H         1 UNK         0.0837 
    106 H106      -77.7787   26.2152  -77.4072 H         1 UNK         0.3020 
    107 H107      -76.7131   27.4589  -74.2282 H         1 UNK         0.1245 
    108 H108      -79.2386   27.9288  -74.3152 H         1 UNK         0.0781 
    109 H109      -79.1157   28.0588  -76.0398 H         1 UNK         0.0781 
    110 H110      -79.7443   30.1758  -73.2608 H         1 UNK         0.0836 
    111 H111      -78.5755   31.4683  -73.2026 H         1 UNK         0.0836 
    112 H112      -78.6994   25.5751  -75.1918 H         1 UNK         0.3022 
    113 H113      -76.6465   22.7157  -75.0091 H         1 UNK         0.0747 
    114 H114      -78.1401   21.8026  -73.3168 H         1 UNK         0.0793 
    115 H115      -77.1026   23.0034  -72.5649 H         1 UNK         0.0793 
    116 H116      -78.7754   23.3945  -72.9308 H         1 UNK         0.0793 
    117 H117      -79.5077   23.2294  -75.2700 H         1 UNK         0.3047 
    118 H118      -79.3620   23.6050  -78.8199 H         1 UNK         0.0822 
    119 H119      -80.8431   21.6183  -78.8643 H         1 UNK         0.0807 
    120 H120      -80.3290   21.1597  -77.2398 H         1 UNK         0.0807 
    121 H121      -79.1851   21.1206  -78.5745 H         1 UNK         0.0807 
    122 H122      -81.6034   23.3158  -77.1268 H         1 UNK         0.2946 
    123 H123      -82.3225   26.6357  -76.9746 H         1 UNK         0.1144 
    124 H124      -84.2019   25.2776  -76.1325 H         1 UNK         0.0793 
    125 H125      -83.1638   23.8793  -75.9055 H         1 UNK         0.0793 
    126 H126      -83.4971   24.4890  -77.5281 H         1 UNK         0.0793 
    127 H127      -82.2564   27.0639  -74.7738 H         1 UNK         0.2896 
@<TRIPOS>BOND
     1    1    2 1    
     2    1   67 1    
     3    1   68 1    
     4    1   69 1    
     5    2    3 2    
     6    2    4 am   BACKBONE|DICT|INTERRES
     7    4    5 1    
     8    4   70 1    
     9    5    6 1    
    10    5   65 1    
    11    5   71 1    
    12    6    7 1    
    13    6   72 1    
    14    6   73 1    
    15    7    8 1    
    16    8    9 1    
    17    8   74 1    
    18    8   75 1    
    19    9   10 ar   
    20    9   14 ar   
    21   10   11 ar   
    22   10   76 1    
    23   11   12 ar   
    24   11   48 1    
    25   12   13 ar   
    26   12   77 1    
    27   13   14 ar   
    28   13   15 1    
    29   14   78 1    
    30   15   16 1    
    31   15   79 1    
    32   15   80 1    
    33   16   17 1    
    34   17   18 1    
    35   17   81 1    
    36   17   82 1    
    37   18   19 1    
    38   18   22 1    
    39   18   83 1    
    40   19   20 am   BACKBONE|DICT|INTERRES
    41   19   21 2    
    42   20   84 1    
    43   20   85 1    
    44   22   23 am   BACKBONE|DICT|INTERRES
    45   22   86 1    
    46   23   24 2    
    47   23   25 1    
    48   25   26 1    
    49   25   27 1    
    50   25   87 1    
    51   26   88 1    
    52   26   89 1    
    53   26   90 1    
    54   27   28 am   BACKBONE|DICT|INTERRES
    55   27   91 1    
    56   28   29 2    
    57   28   30 1    
    58   30   31 1    
    59   30   32 1    
    60   30   92 1    
    61   31   93 1    
    62   31   94 1    
    63   31   95 1    
    64   32   33 am   BACKBONE|DICT|INTERRES
    65   32   96 1    
    66   33   34 2    
    67   33   35 1    
    68   35   36 1    
    69   35   37 1    
    70   35   97 1    
    71   36   98 1    
    72   36   99 1    
    73   36  100 1    
    74   37   38 am   BACKBONE|DICT|INTERRES
    75   37  101 1    
    76   38   39 2    
    77   38   40 1    
    78   40   41 1    
    79   40   42 1    
    80   40  102 1    
    81   41  103 1    
    82   41  104 1    
    83   41  105 1    
    84   42   43 am   BACKBONE|DICT|INTERRES
    85   42  106 1    
    86   43   44 2    
    87   43   45 1    
    88   45   46 1    
    89   45   49 1    
    90   45  107 1    
    91   46   47 1    
    92   46  108 1    
    93   46  109 1    
    94   47   48 1    
    95   48  110 1    
    96   48  111 1    
    97   49   50 am   BACKBONE|DICT|INTERRES
    98   49  112 1    
    99   50   51 2    
   100   50   52 1    
   101   52   53 1    
   102   52   54 1    
   103   52  113 1    
   104   53  114 1    
   105   53  115 1    
   106   53  116 1    
   107   54   55 am   BACKBONE|DICT|INTERRES
   108   54  117 1    
   109   55   56 2    
   110   55   57 1    
   111   57   58 1    
   112   57   59 1    
   113   57  118 1    
   114   58  119 1    
   115   58  120 1    
   116   58  121 1    
   117   59   60 am   BACKBONE|DICT|INTERRES
   118   59  122 1    
   119   60   61 2    
   120   60   62 1    
   121   62   63 1    
   122   62   64 1    
   123   62  123 1    
   124   63  124 1    
   125   63  125 1    
   126   63  126 1    
   127   64   65 am   BACKBONE|DICT|INTERRES
   128   64  127 1    
   129   65   66 2    
@<TRIPOS>SUBSTRUCTURE
     1 UNK         1 GROUP             0       ****    0 ROOT    
