@<TRIPOS>MOLECULE
3R135
127   129    1
SMALL
USER_CHARGES


@<TRIPOS>ATOM
      1 CA        -81.3992   23.4234  -69.9692 C.3       0 UNK        -0.1998 
      2 C         -81.8088   24.4314  -71.0312 C.2       0 UNK         0.4909 
      3 O         -82.5842   24.0943  -71.9270 O.2       0 UNK        -0.5240 
      4 N         -81.2896   25.6649  -70.9493 N.am      1 UNK        -0.4739 
      5 CA        -81.5459   26.7445  -71.9093 C.3       1 UNK         0.0864 
      6 C6        -80.9234   28.0821  -71.4439 C.3       11 UNK        -0.0881 
      7 S7        -81.6622   29.5044  -72.3137 S.3       11 UNK        -0.2682 
      8 C8        -80.4166   30.8006  -72.0193 C.3       11 UNK         0.0289 
      9 C9        -79.0860   30.5382  -72.7177 C.ar      11 UNK        -0.0687 
     10 C10       -79.0362   30.2863  -74.0941 C.ar      11 UNK        -0.0823 
     11 C11       -77.8096   30.1008  -74.7407 C.ar      11 UNK        -0.0830 
     12 C12       -76.6271   30.1985  -74.0029 C.ar      11 UNK        -0.1021 
     13 C13       -76.6625   30.4160  -72.6237 C.ar      11 UNK        -0.0753 
     14 C14       -77.8944   30.5884  -71.9867 C.ar      11 UNK        -0.0933 
     15 C15       -75.3667   30.4793  -71.8289 C.3       11 UNK         0.0166 
     16 S16       -74.9717   28.8987  -71.0084 S.3       11 UNK        -0.2615 
     17 C17       -74.6980   27.7591  -72.4104 C.3       11 UNK        -0.0865 
     18 CA        -73.2126   27.6508  -72.8420 C.3       10 UNK         0.0862 
     19 C         -73.0475   26.5687  -73.9382 C.2       10 UNK         0.5551 
     20 N         -72.8251   25.3226  -73.5520 N.am      10 UNK        -0.7319 
     21 O         -73.1677   26.8453  -75.1347 O.2       10 UNK        -0.5018 
     22 N         -72.6950   28.9098  -73.3805 N.am      10 UNK        -0.4509 
     23 C         -71.6851   29.6224  -72.8741 C.2       10 UNK         0.4899 
     24 O         -71.2212   29.4707  -71.7427 O.2       10 UNK        -0.4839 
     25 CA        -71.0628   30.6414  -73.8508 C.3       9 UNK         0.0222 
     26 CB        -69.7779   31.2983  -73.3027 C.3       9 UNK        -0.1966 
     27 N         -70.8258   30.0482  -75.1791 N.am      9 UNK        -0.4218 
     28 C         -70.0823   28.9631  -75.4590 C.2       9 UNK         0.5020 
     29 O         -69.4208   28.3446  -74.6234 O.2       9 UNK        -0.5274 
     30 CA        -70.1214   28.4729  -76.9143 C.3       8 UNK         0.0270 
     31 CB        -69.4239   27.1122  -77.1115 C.3       8 UNK        -0.1976 
     32 N         -71.5087   28.3628  -77.3684 N.am      8 UNK        -0.4313 
     33 C         -71.9828   28.8583  -78.5196 C.2       8 UNK         0.5041 
     34 O         -71.3055   29.5256  -79.3041 O.2       8 UNK        -0.5577 
     35 CA        -73.4624   28.5648  -78.8435 C.3       7 UNK         0.0284 
     36 CB        -73.8019   28.7455  -80.3384 C.3       7 UNK        -0.1958 
     37 N         -73.9085   27.2525  -78.3601 N.am      7 UNK        -0.4454 
     38 C         -73.4448   26.0393  -78.7076 C.2       7 UNK         0.5089 
     39 O         -72.5848   25.8532  -79.5690 O.2       7 UNK        -0.5125 
     40 CA        -74.0202   24.8284  -77.9454 C.3       6 UNK         0.0408 
     41 CB        -72.8960   23.9031  -77.4473 C.3       6 UNK        -0.1791 
     42 N         -74.8050   25.2698  -76.7920 N.am      6 UNK        -0.4762 
     43 C         -76.1147   25.0764  -76.6058 C.2       6 UNK         0.5007 
     44 O         -76.8234   24.3791  -77.3343 O.2       6 UNK        -0.5032 
     45 CA        -76.7446   25.8453  -75.4247 C.3       5 UNK         0.0783 
     46 C46       -77.6614   26.9921  -75.9202 C.3       11 UNK        -0.0857 
     47 S47       -76.7183   28.3725  -76.6534 S.3       11 UNK        -0.2512 
     48 C48       -77.7619   29.8120  -76.2370 C.3       11 UNK         0.0225 
     49 N         -77.4579   24.9599  -74.5067 N.am      5 UNK        -0.4615 
     50 C         -76.9274   23.9341  -73.8280 C.2       4 UNK         0.5053 
     51 O         -75.7423   23.6083  -73.8861 O.2       4 UNK        -0.5105 
     52 CA        -77.8755   23.1491  -72.9093 C.3       4 UNK         0.0263 
     53 CB        -77.9244   23.7956  -71.5148 C.3       4 UNK        -0.1981 
     54 N         -79.2296   23.0755  -73.4629 N.am      4 UNK        -0.4224 
     55 C         -79.6622   22.1066  -74.2831 C.2       3 UNK         0.4895 
     56 O         -78.9817   21.1336  -74.6098 O.2       3 UNK        -0.5091 
     57 CA        -81.0967   22.2262  -74.8302 C.3       3 UNK         0.0250 
     58 CB        -82.0654   21.3788  -73.9894 C.3       3 UNK        -0.1996 
     59 N         -81.5722   23.6118  -74.8802 N.am      3 UNK        -0.4254 
     60 C         -81.2307   24.4837  -75.8424 C.2       2 UNK         0.5004 
     61 O         -80.5573   24.1804  -76.8265 O.2       2 UNK        -0.5226 
     62 CA        -81.6935   25.9462  -75.6852 C.3       2 UNK         0.0269 
     63 CB        -82.9459   26.2083  -76.5368 C.3       2 UNK        -0.1926 
     64 N         -81.9586   26.3573  -74.3024 N.am      2 UNK        -0.4687 
     65 C         -81.0542   26.3456  -73.3146 C.2       1 UNK         0.5165 
     66 O         -79.8865   25.9830  -73.4660 O.2       1 UNK        -0.5079 
     67 H67       -82.2697   23.1154  -69.3908 H         1 UNK         0.0900 
     68 H68       -80.9723   22.5377  -70.4390 H         1 UNK         0.0900 
     69 H69       -80.6604   23.8331  -69.2808 H         1 UNK         0.0900 
     70 H70       -80.6424   25.8824  -70.2051 H         1 UNK         0.2959 
     71 H71       -82.6309   26.8685  -71.9439 H         1 UNK         0.1079 
     72 H72       -81.1003   28.2297  -70.3773 H         1 UNK         0.0837 
     73 H73       -79.8390   28.0775  -71.5745 H         1 UNK         0.0837 
     74 H74       -80.8133   31.7514  -72.3775 H         1 UNK         0.0685 
     75 H75       -80.2776   30.9129  -70.9429 H         1 UNK         0.0685 
     76 H76       -79.9567   30.2395  -74.6599 H         1 UNK         0.1434 
     77 H77       -75.6754   30.0776  -74.5017 H         1 UNK         0.1329 
     78 H78       -77.9204   30.7740  -70.9215 H         1 UNK         0.1335 
     79 H79       -75.4467   31.2556  -71.0666 H         1 UNK         0.0680 
     80 H80       -74.5381   30.7772  -72.4717 H         1 UNK         0.0680 
     81 H81       -75.3288   28.0359  -73.2527 H         1 UNK         0.1032 
     82 H82       -75.0614   26.7803  -72.0907 H         1 UNK         0.1032 
     83 H83       -72.6188   27.3440  -71.9784 H         1 UNK         0.0461 
     84 H84       -72.7466   24.5958  -74.2443 H         1 UNK         0.3453 
     85 H85       -72.7451   25.0859  -72.5757 H         1 UNK         0.3453 
     86 H86       -72.9585   29.0823  -74.3396 H         1 UNK         0.2984 
     87 H87       -71.8043   31.4299  -73.9878 H         1 UNK         0.0554 
     88 H88       -69.9769   31.8234  -72.3677 H         1 UNK         0.0847 
     89 H89       -69.3750   32.0287  -74.0041 H         1 UNK         0.0847 
     90 H90       -68.9990   30.5621  -73.1011 H         1 UNK         0.0847 
     91 H91       -71.3211   30.4806  -75.9471 H         1 UNK         0.3141 
     92 H92       -69.5817   29.2185  -77.5018 H         1 UNK         0.0743 
     93 H93       -69.8988   26.3283  -76.5198 H         1 UNK         0.0784 
     94 H94       -69.4506   26.8031  -78.1567 H         1 UNK         0.0784 
     95 H95       -68.3755   27.1604  -76.8146 H         1 UNK         0.0784 
     96 H96       -72.1335   27.8360  -76.7663 H         1 UNK         0.3213 
     97 H97       -74.0406   29.3044  -78.2872 H         1 UNK         0.0855 
     98 H98       -73.2114   28.0824  -80.9713 H         1 UNK         0.0814 
     99 H99       -73.6022   29.7670  -80.6644 H         1 UNK         0.0814 
    100 H100      -74.8556   28.5458  -80.5326 H         1 UNK         0.0814 
    101 H101      -74.6357   27.2789  -77.6580 H         1 UNK         0.3105 
    102 H102      -74.6453   24.2731  -78.6472 H         1 UNK         0.0547 
    103 H103      -72.1992   24.4318  -76.7955 H         1 UNK         0.0837 
    104 H104      -73.2980   23.0552  -76.8927 H         1 UNK         0.0837 
    105 H105      -72.3205   23.4993  -78.2813 H         1 UNK         0.0837 
    106 H106      -74.2885   25.8387  -76.1222 H         1 UNK         0.3020 
    107 H107      -75.9416   26.2894  -74.8356 H         1 UNK         0.1245 
    108 H108      -78.2384   27.3850  -75.0818 H         1 UNK         0.0781 
    109 H109      -78.3935   26.6299  -76.6446 H         1 UNK         0.0781 
    110 H110      -78.7641   29.6456  -76.6352 H         1 UNK         0.0836 
    111 H111      -77.3682   30.6906  -76.7495 H         1 UNK         0.0836 
    112 H112      -78.4271   25.2022  -74.3232 H         1 UNK         0.3022 
    113 H113      -77.4706   22.1409  -72.7971 H         1 UNK         0.0747 
    114 H114      -78.3411   24.8030  -71.5462 H         1 UNK         0.0793 
    115 H115      -78.5244   23.2024  -70.8257 H         1 UNK         0.0793 
    116 H116      -76.9241   23.8713  -71.0861 H         1 UNK         0.0793 
    117 H117      -79.8277   23.8750  -73.2965 H         1 UNK         0.3047 
    118 H118      -81.0950   21.8220  -75.8451 H         1 UNK         0.0822 
    119 H119      -81.7740   20.3277  -74.0039 H         1 UNK         0.0807 
    120 H120      -83.0833   21.4375  -74.3750 H         1 UNK         0.0807 
    121 H121      -82.0823   21.6945  -72.9461 H         1 UNK         0.0807 
    122 H122      -82.1248   23.9345  -74.0935 H         1 UNK         0.2946 
    123 H123      -80.8853   26.5763  -76.0630 H         1 UNK         0.1144 
    124 H124      -83.2261   27.2618  -76.5184 H         1 UNK         0.0793 
    125 H125      -83.7998   25.6258  -76.1886 H         1 UNK         0.0793 
    126 H126      -82.7722   25.9403  -77.5801 H         1 UNK         0.0793 
    127 H127      -82.9028   26.6496  -74.0938 H         1 UNK         0.2896 
@<TRIPOS>BOND
     1    1    2 1    
     2    1   67 1    
     3    1   68 1    
     4    1   69 1    
     5    2    3 2    
     6    2    4 am   BACKBONE|DICT|INTERRES
     7    4    5 1    
     8    4   70 1    
     9    5    6 1    
    10    5   65 1    
    11    5   71 1    
    12    6    7 1    
    13    6   72 1    
    14    6   73 1    
    15    7    8 1    
    16    8    9 1    
    17    8   74 1    
    18    8   75 1    
    19    9   10 ar   
    20    9   14 ar   
    21   10   11 ar   
    22   10   76 1    
    23   11   12 ar   
    24   11   48 1    
    25   12   13 ar   
    26   12   77 1    
    27   13   14 ar   
    28   13   15 1    
    29   14   78 1    
    30   15   16 1    
    31   15   79 1    
    32   15   80 1    
    33   16   17 1    
    34   17   18 1    
    35   17   81 1    
    36   17   82 1    
    37   18   19 1    
    38   18   22 1    
    39   18   83 1    
    40   19   20 am   BACKBONE|DICT|INTERRES
    41   19   21 2    
    42   20   84 1    
    43   20   85 1    
    44   22   23 am   BACKBONE|DICT|INTERRES
    45   22   86 1    
    46   23   24 2    
    47   23   25 1    
    48   25   26 1    
    49   25   27 1    
    50   25   87 1    
    51   26   88 1    
    52   26   89 1    
    53   26   90 1    
    54   27   28 am   BACKBONE|DICT|INTERRES
    55   27   91 1    
    56   28   29 2    
    57   28   30 1    
    58   30   31 1    
    59   30   32 1    
    60   30   92 1    
    61   31   93 1    
    62   31   94 1    
    63   31   95 1    
    64   32   33 am   BACKBONE|DICT|INTERRES
    65   32   96 1    
    66   33   34 2    
    67   33   35 1    
    68   35   36 1    
    69   35   37 1    
    70   35   97 1    
    71   36   98 1    
    72   36   99 1    
    73   36  100 1    
    74   37   38 am   BACKBONE|DICT|INTERRES
    75   37  101 1    
    76   38   39 2    
    77   38   40 1    
    78   40   41 1    
    79   40   42 1    
    80   40  102 1    
    81   41  103 1    
    82   41  104 1    
    83   41  105 1    
    84   42   43 am   BACKBONE|DICT|INTERRES
    85   42  106 1    
    86   43   44 2    
    87   43   45 1    
    88   45   46 1    
    89   45   49 1    
    90   45  107 1    
    91   46   47 1    
    92   46  108 1    
    93   46  109 1    
    94   47   48 1    
    95   48  110 1    
    96   48  111 1    
    97   49   50 am   BACKBONE|DICT|INTERRES
    98   49  112 1    
    99   50   51 2    
   100   50   52 1    
   101   52   53 1    
   102   52   54 1    
   103   52  113 1    
   104   53  114 1    
   105   53  115 1    
   106   53  116 1    
   107   54   55 am   BACKBONE|DICT|INTERRES
   108   54  117 1    
   109   55   56 2    
   110   55   57 1    
   111   57   58 1    
   112   57   59 1    
   113   57  118 1    
   114   58  119 1    
   115   58  120 1    
   116   58  121 1    
   117   59   60 am   BACKBONE|DICT|INTERRES
   118   59  122 1    
   119   60   61 2    
   120   60   62 1    
   121   62   63 1    
   122   62   64 1    
   123   62  123 1    
   124   63  124 1    
   125   63  125 1    
   126   63  126 1    
   127   64   65 am   BACKBONE|DICT|INTERRES
   128   64  127 1    
   129   65   66 2    
@<TRIPOS>SUBSTRUCTURE
     1 UNK         1 GROUP             0       ****    0 ROOT    
