@<TRIPOS>MOLECULE
3R135
127   129    1
SMALL
USER_CHARGES


@<TRIPOS>ATOM
      1 CA        -85.1647   24.3331  -72.1999 C.3       0 UNK        -0.1998 
      2 C         -84.5107   25.6335  -72.6417 C.2       0 UNK         0.4909 
      3 O         -85.1903   26.5099  -73.1777 O.2       0 UNK        -0.5240 
      4 N         -83.1969   25.7685  -72.4192 N.am      1 UNK        -0.4739 
      5 CA        -82.3906   26.9189  -72.8340 C.3       1 UNK         0.0864 
      6 C6        -81.1480   27.0876  -71.9200 C.3       11 UNK        -0.0881 
      7 S7        -80.5643   28.8147  -71.8620 S.3       11 UNK        -0.2682 
      8 C8        -79.6171   28.8221  -70.3055 C.3       11 UNK         0.0289 
      9 C9        -78.2599   28.1488  -70.4596 C.ar      11 UNK        -0.0687 
     10 C10       -78.1312   26.7676  -70.2850 C.ar      11 UNK        -0.0823 
     11 C11       -76.8858   26.1490  -70.4221 C.ar      11 UNK        -0.0830 
     12 C12       -75.7634   26.9247  -70.7202 C.ar      11 UNK        -0.1021 
     13 C13       -75.8718   28.3054  -70.9068 C.ar      11 UNK        -0.0753 
     14 C14       -77.1276   28.9121  -70.7633 C.ar      11 UNK        -0.0933 
     15 C15       -74.6027   29.0857  -71.2515 C.3       11 UNK         0.0166 
     16 S16       -74.8717   30.6813  -72.0939 S.3       11 UNK        -0.2615 
     17 C17       -73.1670   31.1017  -72.5856 C.3       11 UNK        -0.0865 
     18 CA        -72.9698   31.1167  -74.1247 C.3       10 UNK         0.0862 
     19 C         -71.5644   31.6876  -74.4850 C.2       10 UNK         0.5551 
     20 N         -70.6559   30.9253  -75.0829 N.am      10 UNK        -0.7319 
     21 O         -71.2947   32.8556  -74.2153 O.2       10 UNK        -0.5018 
     22 N         -73.2866   29.8169  -74.7442 N.am      10 UNK        -0.4509 
     23 C         -73.4857   29.6314  -76.0563 C.2       10 UNK         0.4899 
     24 O         -73.5517   30.5572  -76.8674 O.2       10 UNK        -0.4839 
     25 CA        -73.6047   28.1736  -76.5517 C.3       9 UNK         0.0222 
     26 CB        -73.2431   28.0358  -78.0455 C.3       9 UNK        -0.1966 
     27 N         -72.8445   27.1986  -75.7558 N.am      9 UNK        -0.4218 
     28 C         -71.5287   27.2086  -75.4848 C.2       9 UNK         0.5020 
     29 O         -70.7560   28.0968  -75.8461 O.2       9 UNK        -0.5274 
     30 CA        -70.9833   26.0324  -74.6631 C.3       8 UNK         0.0270 
     31 CB        -71.4336   26.1464  -73.1955 C.3       8 UNK        -0.1976 
     32 N         -71.4492   24.7636  -75.2211 N.am      8 UNK        -0.4313 
     33 C         -70.7178   23.9117  -75.9510 C.2       8 UNK         0.5041 
     34 O         -69.5129   24.0504  -76.1673 O.2       8 UNK        -0.5577 
     35 CA        -71.4514   22.6923  -76.5488 C.3       7 UNK         0.0284 
     36 CB        -71.3448   21.4854  -75.6027 C.3       7 UNK        -0.1958 
     37 N         -72.8649   22.9513  -76.8441 N.am      7 UNK        -0.4454 
     38 C         -73.3002   23.8011  -77.7843 C.2       7 UNK         0.5089 
     39 O         -72.5559   24.3468  -78.5989 O.2       7 UNK        -0.5125 
     40 CA        -74.8100   24.1217  -77.8281 C.3       6 UNK         0.0408 
     41 CB        -75.4790   23.3384  -78.9695 C.3       6 UNK        -0.1791 
     42 N         -75.5919   23.9243  -76.5953 N.am      6 UNK        -0.4762 
     43 C         -75.2911   24.3520  -75.3593 C.2       6 UNK         0.5007 
     44 O         -74.1972   24.8161  -75.0395 O.2       6 UNK        -0.5032 
     45 CA        -76.4262   24.2993  -74.3197 C.3       5 UNK         0.0783 
     46 C46       -75.9017   24.0370  -72.8840 C.3       11 UNK        -0.0857 
     47 S47       -77.2707   23.7204  -71.7162 S.3       11 UNK        -0.2512 
     48 C48       -76.7494   24.6452  -70.2364 C.3       11 UNK         0.0225 
     49 N         -77.2553   25.5065  -74.4267 N.am      5 UNK        -0.4615 
     50 C         -76.8657   26.7880  -74.3116 C.2       4 UNK         0.5053 
     51 O         -75.7184   27.1575  -74.0593 O.2       4 UNK        -0.5105 
     52 CA        -77.9724   27.8243  -74.5589 C.3       4 UNK         0.0263 
     53 CB        -77.4737   29.2839  -74.5655 C.3       4 UNK        -0.1981 
     54 N         -78.7386   27.5089  -75.7689 N.am      4 UNK        -0.4224 
     55 C         -78.3158   27.5459  -77.0429 C.2       3 UNK         0.4895 
     56 O         -77.1936   27.9167  -77.3861 O.2       3 UNK        -0.5091 
     57 CA        -79.2944   27.0656  -78.1349 C.3       3 UNK         0.0250 
     58 CB        -78.7399   25.8124  -78.8355 C.3       3 UNK        -0.1996 
     59 N         -80.6447   26.7700  -77.6457 N.am      3 UNK        -0.4254 
     60 C         -81.5542   27.6776  -77.2640 C.2       2 UNK         0.5004 
     61 O         -81.3796   28.8946  -77.3311 O.2       2 UNK        -0.5226 
     62 CA        -82.8720   27.1389  -76.6742 C.3       2 UNK         0.0269 
     63 CB        -83.2046   25.6924  -77.1074 C.3       2 UNK        -0.1926 
     64 N         -82.9158   27.2489  -75.2094 N.am      2 UNK        -0.4687 
     65 C         -82.0317   26.7591  -74.3260 C.2       1 UNK         0.5165 
     66 O         -81.0069   26.1512  -74.6459 O.2       1 UNK        -0.5079 
     67 H67       -84.4519   23.6577  -71.7271 H         1 UNK         0.0900 
     68 H68       -85.9621   24.5381  -71.4861 H         1 UNK         0.0900 
     69 H69       -85.5988   23.8216  -73.0585 H         1 UNK         0.0900 
     70 H70       -82.6844   25.0022  -72.0058 H         1 UNK         0.2959 
     71 H71       -83.0056   27.8160  -72.7267 H         1 UNK         0.1079 
     72 H72       -80.3274   26.4267  -72.2057 H         1 UNK         0.0837 
     73 H73       -81.4107   26.8052  -70.8992 H         1 UNK         0.0837 
     74 H74       -79.4810   29.8572  -69.9886 H         1 UNK         0.0685 
     75 H75       -80.1934   28.3406  -69.5141 H         1 UNK         0.0685 
     76 H76       -79.0007   26.1708  -70.0471 H         1 UNK         0.1434 
     77 H77       -74.7978   26.4490  -70.8237 H         1 UNK         0.1329 
     78 H78       -77.2347   29.9795  -70.8919 H         1 UNK         0.1335 
     79 H79       -74.0378   29.2602  -70.3350 H         1 UNK         0.0680 
     80 H80       -73.9758   28.4676  -71.8967 H         1 UNK         0.0680 
     81 H81       -72.4584   30.4166  -72.1167 H         1 UNK         0.1032 
     82 H82       -72.9492   32.0857  -72.1656 H         1 UNK         0.1032 
     83 H83       -73.6858   31.8354  -74.5286 H         1 UNK         0.0461 
     84 H84       -70.8517   29.9586  -75.3256 H         1 UNK         0.3453 
     85 H85       -69.7570   31.3205  -75.3070 H         1 UNK         0.3453 
     86 H86       -73.2868   29.0102  -74.1387 H         1 UNK         0.2984 
     87 H87       -74.6535   27.8988  -76.4402 H         1 UNK         0.0554 
     88 H88       -73.9102   28.6348  -78.6665 H         1 UNK         0.0847 
     89 H89       -73.3300   27.0048  -78.3847 H         1 UNK         0.0847 
     90 H90       -72.2235   28.3675  -78.2446 H         1 UNK         0.0847 
     91 H91       -73.4035   26.4373  -75.3732 H         1 UNK         0.3141 
     92 H92       -69.8926   26.0794  -74.6891 H         1 UNK         0.0743 
     93 H93       -72.5190   26.0951  -73.0944 H         1 UNK         0.0784 
     94 H94       -71.0060   25.3469  -72.5904 H         1 UNK         0.0784 
     95 H95       -71.1084   27.0921  -72.7597 H         1 UNK         0.0784 
     96 H96       -72.4501   24.5882  -75.1388 H         1 UNK         0.3213 
     97 H97       -70.9528   22.4374  -77.4866 H         1 UNK         0.0855 
     98 H98       -71.8411   21.6732  -74.6497 H         1 UNK         0.0814 
     99 H99       -70.3013   21.2522  -75.3857 H         1 UNK         0.0814 
    100 H100      -71.7889   20.5931  -76.0445 H         1 UNK         0.0814 
    101 H101      -73.5476   22.5483  -76.2192 H         1 UNK         0.3105 
    102 H102      -74.8909   25.1841  -78.0647 H         1 UNK         0.0547 
    103 H103      -74.9513   23.4905  -79.9124 H         1 UNK         0.0837 
    104 H104      -75.4860   22.2660  -78.7707 H         1 UNK         0.0837 
    105 H105      -76.5086   23.6586  -79.1267 H         1 UNK         0.0837 
    106 H106      -76.5153   23.5418  -76.7395 H         1 UNK         0.3020 
    107 H107      -77.0649   23.4559  -74.5874 H         1 UNK         0.1245 
    108 H108      -75.2935   24.8735  -72.5402 H         1 UNK         0.0781 
    109 H109      -75.2479   23.1631  -72.8686 H         1 UNK         0.0781 
    110 H110      -75.7231   24.3758  -69.9818 H         1 UNK         0.0836 
    111 H111      -77.3625   24.3287  -69.3912 H         1 UNK         0.0836 
    112 H112      -78.2293   25.3392  -74.6349 H         1 UNK         0.3022 
    113 H113      -78.6649   27.7210  -73.7248 H         1 UNK         0.0747 
    114 H114      -78.2851   29.9810  -74.7728 H         1 UNK         0.0793 
    115 H115      -77.0633   29.5466  -73.5923 H         1 UNK         0.0793 
    116 H116      -76.6865   29.4475  -75.3018 H         1 UNK         0.0793 
    117 H117      -79.6665   27.1325  -75.5934 H         1 UNK         0.3047 
    118 H118      -79.3677   27.8674  -78.8727 H         1 UNK         0.0822 
    119 H119      -79.3830   25.4991  -79.6582 H         1 UNK         0.0807 
    120 H120      -78.6429   24.9740  -78.1448 H         1 UNK         0.0807 
    121 H121      -77.7515   26.0033  -79.2563 H         1 UNK         0.0807 
    122 H122      -80.8748   25.7945  -77.5211 H         1 UNK         0.2946 
    123 H123      -83.6608   27.7860  -77.0623 H         1 UNK         0.1144 
    124 H124      -83.1821   25.5901  -78.1934 H         1 UNK         0.0793 
    125 H125      -84.2073   25.4128  -76.7833 H         1 UNK         0.0793 
    126 H126      -82.5133   24.9604  -76.6884 H         1 UNK         0.0793 
    127 H127      -83.7400   27.7027  -74.8365 H         1 UNK         0.2896 
@<TRIPOS>BOND
     1    1    2 1    
     2    1   67 1    
     3    1   68 1    
     4    1   69 1    
     5    2    3 2    
     6    2    4 am   BACKBONE|DICT|INTERRES
     7    4    5 1    
     8    4   70 1    
     9    5    6 1    
    10    5   65 1    
    11    5   71 1    
    12    6    7 1    
    13    6   72 1    
    14    6   73 1    
    15    7    8 1    
    16    8    9 1    
    17    8   74 1    
    18    8   75 1    
    19    9   10 ar   
    20    9   14 ar   
    21   10   11 ar   
    22   10   76 1    
    23   11   12 ar   
    24   11   48 1    
    25   12   13 ar   
    26   12   77 1    
    27   13   14 ar   
    28   13   15 1    
    29   14   78 1    
    30   15   16 1    
    31   15   79 1    
    32   15   80 1    
    33   16   17 1    
    34   17   18 1    
    35   17   81 1    
    36   17   82 1    
    37   18   19 1    
    38   18   22 1    
    39   18   83 1    
    40   19   20 am   BACKBONE|DICT|INTERRES
    41   19   21 2    
    42   20   84 1    
    43   20   85 1    
    44   22   23 am   BACKBONE|DICT|INTERRES
    45   22   86 1    
    46   23   24 2    
    47   23   25 1    
    48   25   26 1    
    49   25   27 1    
    50   25   87 1    
    51   26   88 1    
    52   26   89 1    
    53   26   90 1    
    54   27   28 am   BACKBONE|DICT|INTERRES
    55   27   91 1    
    56   28   29 2    
    57   28   30 1    
    58   30   31 1    
    59   30   32 1    
    60   30   92 1    
    61   31   93 1    
    62   31   94 1    
    63   31   95 1    
    64   32   33 am   BACKBONE|DICT|INTERRES
    65   32   96 1    
    66   33   34 2    
    67   33   35 1    
    68   35   36 1    
    69   35   37 1    
    70   35   97 1    
    71   36   98 1    
    72   36   99 1    
    73   36  100 1    
    74   37   38 am   BACKBONE|DICT|INTERRES
    75   37  101 1    
    76   38   39 2    
    77   38   40 1    
    78   40   41 1    
    79   40   42 1    
    80   40  102 1    
    81   41  103 1    
    82   41  104 1    
    83   41  105 1    
    84   42   43 am   BACKBONE|DICT|INTERRES
    85   42  106 1    
    86   43   44 2    
    87   43   45 1    
    88   45   46 1    
    89   45   49 1    
    90   45  107 1    
    91   46   47 1    
    92   46  108 1    
    93   46  109 1    
    94   47   48 1    
    95   48  110 1    
    96   48  111 1    
    97   49   50 am   BACKBONE|DICT|INTERRES
    98   49  112 1    
    99   50   51 2    
   100   50   52 1    
   101   52   53 1    
   102   52   54 1    
   103   52  113 1    
   104   53  114 1    
   105   53  115 1    
   106   53  116 1    
   107   54   55 am   BACKBONE|DICT|INTERRES
   108   54  117 1    
   109   55   56 2    
   110   55   57 1    
   111   57   58 1    
   112   57   59 1    
   113   57  118 1    
   114   58  119 1    
   115   58  120 1    
   116   58  121 1    
   117   59   60 am   BACKBONE|DICT|INTERRES
   118   59  122 1    
   119   60   61 2    
   120   60   62 1    
   121   62   63 1    
   122   62   64 1    
   123   62  123 1    
   124   63  124 1    
   125   63  125 1    
   126   63  126 1    
   127   64   65 am   BACKBONE|DICT|INTERRES
   128   64  127 1    
   129   65   66 2    
@<TRIPOS>SUBSTRUCTURE
     1 UNK         1 GROUP             0       ****    0 ROOT    
