@<TRIPOS>MOLECULE
3R135
127   129    1
SMALL
USER_CHARGES


@<TRIPOS>ATOM
      1 CA        -84.1135   26.8098  -74.5484 C.3       0 UNK        -0.1998 
      2 C         -82.6349   27.1265  -74.3908 C.2       0 UNK         0.4909 
      3 O         -81.7939   26.2879  -74.7144 O.2       0 UNK        -0.5240 
      4 N         -82.3072   28.3301  -73.9033 N.am      1 UNK        -0.4739 
      5 CA        -80.9407   28.8248  -73.6839 C.3       1 UNK         0.0864 
      6 C6        -80.1960   28.0672  -72.5480 C.3       11 UNK        -0.0881 
      7 S7        -81.0450   28.2428  -70.9401 S.3       11 UNK        -0.2682 
      8 C8        -80.0913   27.0965  -69.8807 C.3       11 UNK         0.0289 
      9 C9        -78.5851   27.3534  -69.8702 C.ar      11 UNK        -0.0687 
     10 C10       -77.7013   26.2718  -69.8034 C.ar      11 UNK        -0.0823 
     11 C11       -76.3177   26.4734  -69.8627 C.ar      11 UNK        -0.0830 
     12 C12       -75.8184   27.7725  -69.9947 C.ar      11 UNK        -0.1021 
     13 C13       -76.6901   28.8634  -70.0503 C.ar      11 UNK        -0.0753 
     14 C14       -78.0659   28.6503  -69.9481 C.ar      11 UNK        -0.0933 
     15 C15       -76.1568   30.2706  -70.2765 C.3       11 UNK         0.0166 
     16 S16       -76.7322   30.9560  -71.8672 S.3       11 UNK        -0.2615 
     17 C17       -76.0099   29.7777  -73.0622 C.3       11 UNK        -0.0865 
     18 CA        -74.8850   30.4018  -73.9207 C.3       10 UNK         0.0862 
     19 C         -73.6057   30.6972  -73.0929 C.2       10 UNK         0.5551 
     20 N         -73.2693   31.9631  -72.8885 N.am      10 UNK        -0.7319 
     21 O         -72.9393   29.7844  -72.6101 O.2       10 UNK        -0.5018 
     22 N         -74.5619   29.5189  -75.0434 N.am      10 UNK        -0.4509 
     23 C         -74.0226   29.9242  -76.1984 C.2       10 UNK         0.4899 
     24 O         -73.8633   31.1049  -76.5118 O.2       10 UNK        -0.4839 
     25 CA        -73.5797   28.7962  -77.1446 C.3       9 UNK         0.0222 
     26 CB        -72.8791   29.3005  -78.4236 C.3       9 UNK        -0.1966 
     27 N         -72.7619   27.8042  -76.4392 N.am      9 UNK        -0.4218 
     28 C         -71.5588   27.9773  -75.8674 C.2       9 UNK         0.5020 
     29 O         -70.9149   29.0264  -75.8995 O.2       9 UNK        -0.5274 
     30 CA        -70.9694   26.7604  -75.1330 C.3       8 UNK         0.0270 
     31 CB        -71.3735   26.7797  -73.6492 C.3       8 UNK        -0.1976 
     32 N         -71.4035   25.5004  -75.7415 N.am      8 UNK        -0.4313 
     33 C         -70.8286   24.9425  -76.8170 C.2       8 UNK         0.5041 
     34 O         -69.7914   25.3582  -77.3349 O.2       8 UNK        -0.5577 
     35 CA        -71.5421   23.7247  -77.4332 C.3       7 UNK         0.0284 
     36 CB        -71.0733   22.4245  -76.7601 C.3       7 UNK        -0.1958 
     37 N         -73.0027   23.8205  -77.3505 N.am      7 UNK        -0.4454 
     38 C         -73.7471   24.7170  -78.0152 C.2       7 UNK         0.5089 
     39 O         -73.2922   25.5016  -78.8465 O.2       7 UNK        -0.5125 
     40 CA        -75.2475   24.7751  -77.6734 C.3       6 UNK         0.0408 
     41 CB        -76.0576   23.9868  -78.7138 C.3       6 UNK        -0.1791 
     42 N         -75.5805   24.2932  -76.3261 N.am      6 UNK        -0.4762 
     43 C         -75.1535   24.8406  -75.1765 C.2       6 UNK         0.5007 
     44 O         -74.4184   25.8299  -75.1384 O.2       6 UNK        -0.5032 
     45 CA        -75.5895   24.1357  -73.8706 C.3       5 UNK         0.0783 
     46 C46       -75.3266   24.9878  -72.5981 C.3       11 UNK        -0.0857 
     47 S47       -75.6740   24.0427  -71.0770 S.3       11 UNK        -0.2512 
     48 C48       -75.3590   25.2912  -69.7886 C.3       11 UNK         0.0225 
     49 N         -76.9602   23.6099  -73.9657 N.am      5 UNK        -0.4615 
     50 C         -78.0742   24.3420  -74.0822 C.2       4 UNK         0.5053 
     51 O         -78.1012   25.5755  -74.0684 O.2       4 UNK        -0.5105 
     52 CA        -79.3853   23.5636  -74.2709 C.3       4 UNK         0.0263 
     53 CB        -80.2405   23.6182  -72.9949 C.3       4 UNK        -0.1981 
     54 N         -80.1196   24.1682  -75.3777 N.am      4 UNK        -0.4224 
     55 C         -79.8081   23.9970  -76.6709 C.2       3 UNK         0.4895 
     56 O         -79.1006   23.0815  -77.0911 O.2       3 UNK        -0.5091 
     57 CA        -80.2757   25.1004  -77.6316 C.3       3 UNK         0.0250 
     58 CB        -81.7945   25.0529  -77.8694 C.3       3 UNK        -0.1996 
     59 N         -79.8791   26.3876  -77.0548 N.am      3 UNK        -0.4254 
     60 C         -78.7221   27.0061  -77.3339 C.2       2 UNK         0.5004 
     61 O         -78.0477   26.7603  -78.3339 O.2       2 UNK        -0.5226 
     62 CA        -78.1724   28.0148  -76.3058 C.3       2 UNK         0.0269 
     63 CB        -77.7500   29.3536  -76.9478 C.3       2 UNK        -0.1926 
     64 N         -79.0271   28.1958  -75.1235 N.am      2 UNK        -0.4687 
     65 C         -80.1723   28.8884  -75.0255 C.2       1 UNK         0.5165 
     66 O         -80.6561   29.5448  -75.9493 O.2       1 UNK        -0.5079 
     67 H67       -84.7449   27.6307  -74.2095 H         1 UNK         0.0900 
     68 H68       -84.3437   26.6118  -75.5948 H         1 UNK         0.0900 
     69 H69       -84.3685   25.9230  -73.9691 H         1 UNK         0.0900 
     70 H70       -83.0412   28.9866  -73.6779 H         1 UNK         0.2959 
     71 H71       -81.0403   29.8647  -73.3680 H         1 UNK         0.1079 
     72 H72       -79.1845   28.4605  -72.4363 H         1 UNK         0.0837 
     73 H73       -80.0931   27.0060  -72.7773 H         1 UNK         0.0837 
     74 H74       -80.2963   26.0787  -70.2169 H         1 UNK         0.0685 
     75 H75       -80.4660   27.1685  -68.8591 H         1 UNK         0.0685 
     76 H76       -78.0884   25.2648  -69.7266 H         1 UNK         0.1434 
     77 H77       -74.7516   27.9350  -70.0702 H         1 UNK         0.1329 
     78 H78       -78.7335   29.4994  -69.9947 H         1 UNK         0.1335 
     79 H79       -76.4943   30.9182  -69.4662 H         1 UNK         0.0680 
     80 H80       -75.0658   30.2861  -70.2534 H         1 UNK         0.0680 
     81 H81       -75.6554   28.8757  -72.5621 H         1 UNK         0.1032 
     82 H82       -76.8250   29.4504  -73.7085 H         1 UNK         0.1032 
     83 H83       -75.2665   31.3401  -74.3298 H         1 UNK         0.0461 
     84 H84       -72.4478   32.1706  -72.3430 H         1 UNK         0.3453 
     85 H85       -73.8197   32.7148  -73.2733 H         1 UNK         0.3453 
     86 H86       -74.5915   28.5275  -74.8515 H         1 UNK         0.2984 
     87 H87       -74.4881   28.2766  -77.4534 H         1 UNK         0.0554 
     88 H88       -73.5415   29.9473  -78.9999 H         1 UNK         0.0847 
     89 H89       -72.5937   28.4700  -79.0697 H         1 UNK         0.0847 
     90 H90       -71.9806   29.8756  -78.1986 H         1 UNK         0.0847 
     91 H91       -73.2264   26.9204  -76.2589 H         1 UNK         0.3141 
     92 H92       -69.8807   26.8283  -75.1884 H         1 UNK         0.0743 
     93 H93       -71.0096   27.6854  -73.1619 H         1 UNK         0.0784 
     94 H94       -72.4560   26.7606  -73.5202 H         1 UNK         0.0784 
     95 H95       -70.9537   25.9305  -73.1100 H         1 UNK         0.0784 
     96 H96       -72.2670   25.1064  -75.3945 H         1 UNK         0.3213 
     97 H97       -71.2669   23.6815  -78.4895 H         1 UNK         0.0855 
     98 H98       -71.3352   22.3965  -75.7017 H         1 UNK         0.0814 
     99 H99       -69.9895   22.3202  -76.8296 H         1 UNK         0.0814 
    100 H100      -71.5115   21.5487  -77.2392 H         1 UNK         0.0814 
    101 H101      -73.4713   23.1910  -76.7158 H         1 UNK         0.3105 
    102 H102      -75.5478   25.8232  -77.7300 H         1 UNK         0.0547 
    103 H103      -75.8275   24.3241  -79.7255 H         1 UNK         0.0837 
    104 H104      -75.8479   22.9177  -78.6689 H         1 UNK         0.0837 
    105 H105      -77.1282   24.1276  -78.5702 H         1 UNK         0.0837 
    106 H106      -76.2008   23.4969  -76.2755 H         1 UNK         0.3020 
    107 H107      -74.9408   23.2609  -73.8007 H         1 UNK         0.1245 
    108 H108      -75.9303   25.8968  -72.6068 H         1 UNK         0.0781 
    109 H109      -74.2851   25.3109  -72.5564 H         1 UNK         0.0781 
    110 H110      -75.4587   24.8194  -68.8103 H         1 UNK         0.0836 
    111 H111      -74.3219   25.6218  -69.8648 H         1 UNK         0.0836 
    112 H112      -77.0416   22.6029  -73.9662 H         1 UNK         0.3022 
    113 H113      -79.1699   22.5194  -74.5071 H         1 UNK         0.0747 
    114 H114      -79.7112   23.1733  -72.1513 H         1 UNK         0.0793 
    115 H115      -81.1741   23.0701  -73.1211 H         1 UNK         0.0793 
    116 H116      -80.4912   24.6430  -72.7187 H         1 UNK         0.0793 
    117 H117      -80.7179   24.9548  -75.1248 H         1 UNK         0.3047 
    118 H118      -79.7806   24.9488  -78.5933 H         1 UNK         0.0822 
    119 H119      -82.1167   25.8664  -78.5195 H         1 UNK         0.0807 
    120 H120      -82.3653   25.1201  -76.9441 H         1 UNK         0.0807 
    121 H121      -82.0781   24.1183  -78.3548 H         1 UNK         0.0807 
    122 H122      -80.3683   26.6598  -76.2099 H         1 UNK         0.2946 
    123 H123      -77.2627   27.5487  -75.9222 H         1 UNK         0.1144 
    124 H124      -76.9642   29.1969  -77.6876 H         1 UNK         0.0793 
    125 H125      -77.3598   30.0485  -76.2045 H         1 UNK         0.0793 
    126 H126      -78.5781   29.8397  -77.4634 H         1 UNK         0.0793 
    127 H127      -78.7678   27.5981  -74.3450 H         1 UNK         0.2896 
@<TRIPOS>BOND
     1    1    2 1    
     2    1   67 1    
     3    1   68 1    
     4    1   69 1    
     5    2    3 2    
     6    2    4 am   BACKBONE|DICT|INTERRES
     7    4    5 1    
     8    4   70 1    
     9    5    6 1    
    10    5   65 1    
    11    5   71 1    
    12    6    7 1    
    13    6   72 1    
    14    6   73 1    
    15    7    8 1    
    16    8    9 1    
    17    8   74 1    
    18    8   75 1    
    19    9   10 ar   
    20    9   14 ar   
    21   10   11 ar   
    22   10   76 1    
    23   11   12 ar   
    24   11   48 1    
    25   12   13 ar   
    26   12   77 1    
    27   13   14 ar   
    28   13   15 1    
    29   14   78 1    
    30   15   16 1    
    31   15   79 1    
    32   15   80 1    
    33   16   17 1    
    34   17   18 1    
    35   17   81 1    
    36   17   82 1    
    37   18   19 1    
    38   18   22 1    
    39   18   83 1    
    40   19   20 am   BACKBONE|DICT|INTERRES
    41   19   21 2    
    42   20   84 1    
    43   20   85 1    
    44   22   23 am   BACKBONE|DICT|INTERRES
    45   22   86 1    
    46   23   24 2    
    47   23   25 1    
    48   25   26 1    
    49   25   27 1    
    50   25   87 1    
    51   26   88 1    
    52   26   89 1    
    53   26   90 1    
    54   27   28 am   BACKBONE|DICT|INTERRES
    55   27   91 1    
    56   28   29 2    
    57   28   30 1    
    58   30   31 1    
    59   30   32 1    
    60   30   92 1    
    61   31   93 1    
    62   31   94 1    
    63   31   95 1    
    64   32   33 am   BACKBONE|DICT|INTERRES
    65   32   96 1    
    66   33   34 2    
    67   33   35 1    
    68   35   36 1    
    69   35   37 1    
    70   35   97 1    
    71   36   98 1    
    72   36   99 1    
    73   36  100 1    
    74   37   38 am   BACKBONE|DICT|INTERRES
    75   37  101 1    
    76   38   39 2    
    77   38   40 1    
    78   40   41 1    
    79   40   42 1    
    80   40  102 1    
    81   41  103 1    
    82   41  104 1    
    83   41  105 1    
    84   42   43 am   BACKBONE|DICT|INTERRES
    85   42  106 1    
    86   43   44 2    
    87   43   45 1    
    88   45   46 1    
    89   45   49 1    
    90   45  107 1    
    91   46   47 1    
    92   46  108 1    
    93   46  109 1    
    94   47   48 1    
    95   48  110 1    
    96   48  111 1    
    97   49   50 am   BACKBONE|DICT|INTERRES
    98   49  112 1    
    99   50   51 2    
   100   50   52 1    
   101   52   53 1    
   102   52   54 1    
   103   52  113 1    
   104   53  114 1    
   105   53  115 1    
   106   53  116 1    
   107   54   55 am   BACKBONE|DICT|INTERRES
   108   54  117 1    
   109   55   56 2    
   110   55   57 1    
   111   57   58 1    
   112   57   59 1    
   113   57  118 1    
   114   58  119 1    
   115   58  120 1    
   116   58  121 1    
   117   59   60 am   BACKBONE|DICT|INTERRES
   118   59  122 1    
   119   60   61 2    
   120   60   62 1    
   121   62   63 1    
   122   62   64 1    
   123   62  123 1    
   124   63  124 1    
   125   63  125 1    
   126   63  126 1    
   127   64   65 am   BACKBONE|DICT|INTERRES
   128   64  127 1    
   129   65   66 2    
@<TRIPOS>SUBSTRUCTURE
     1 UNK         1 GROUP             0       ****    0 ROOT    
