@<TRIPOS>MOLECULE
3R135
127   129    1
SMALL
USER_CHARGES


@<TRIPOS>ATOM
      1 CA        -80.4328   23.1129  -74.1351 C.3       0 UNK        -0.1998 
      2 C         -81.5388   23.6228  -73.2241 C.2       0 UNK         0.4909 
      3 O         -82.3291   22.8277  -72.7158 O.2       0 UNK        -0.5240 
      4 N         -81.6101   24.9437  -73.0287 N.am      1 UNK        -0.4739 
      5 CA        -82.6042   25.6350  -72.1969 C.3       1 UNK         0.0864 
      6 C6        -81.9229   26.6165  -71.2052 C.3       11 UNK        -0.0881 
      7 S7        -80.9303   27.9375  -71.9954 S.3       11 UNK        -0.2682 
      8 C8        -79.6695   28.2564  -70.7236 C.3       11 UNK         0.0289 
      9 C9        -78.3139   27.6740  -71.0990 C.ar      11 UNK        -0.0687 
     10 C10       -78.1005   26.2932  -71.0741 C.ar      11 UNK        -0.0823 
     11 C11       -76.8379   25.7656  -71.3585 C.ar      11 UNK        -0.0830 
     12 C12       -75.7878   26.6311  -71.6822 C.ar      11 UNK        -0.1021 
     13 C13       -75.9856   28.0154  -71.7264 C.ar      11 UNK        -0.0753 
     14 C14       -77.2557   28.5266  -71.4275 C.ar      11 UNK        -0.0933 
     15 C15       -74.7885   28.9157  -72.0390 C.3       11 UNK         0.0166 
     16 S16       -75.2013   30.6036  -72.6027 S.3       11 UNK        -0.2615 
     17 C17       -73.5406   31.3459  -72.7474 C.3       11 UNK        -0.0865 
     18 CA        -73.0833   31.5447  -74.2165 C.3       10 UNK         0.0862 
     19 C         -71.7371   32.3288  -74.2585 C.2       10 UNK         0.5551 
     20 N         -70.6166   31.7188  -74.6298 N.am      10 UNK        -0.7319 
     21 O         -71.7134   33.5166  -73.9460 O.2       10 UNK        -0.5018 
     22 N         -73.0673   30.2748  -74.9582 N.am      10 UNK        -0.4509 
     23 C         -72.9615   30.1572  -76.2879 C.2       10 UNK         0.4899 
     24 O         -73.0173   31.1133  -77.0627 O.2       10 UNK        -0.4839 
     25 CA        -72.7501   28.7325  -76.8449 C.3       9 UNK         0.0222 
     26 CB        -71.9017   28.7271  -78.1331 C.3       9 UNK        -0.1966 
     27 N         -72.2017   27.7742  -75.8737 N.am      9 UNK        -0.4218 
     28 C         -71.0524   27.8600  -75.1832 C.2       9 UNK         0.5020 
     29 O         -70.2790   28.8163  -75.2494 O.2       9 UNK        -0.5274 
     30 CA        -70.7290   26.6977  -74.2339 C.3       8 UNK         0.0270 
     31 CB        -71.5525   26.8138  -72.9397 C.3       8 UNK        -0.1976 
     32 N         -71.0069   25.4081  -74.8670 N.am      8 UNK        -0.4313 
     33 C         -70.0781   24.5450  -75.3000 C.2       8 UNK         0.5041 
     34 O         -68.8654   24.7122  -75.1620 O.2       8 UNK        -0.5577 
     35 CA        -70.5795   23.2702  -76.0073 C.3       7 UNK         0.0284 
     36 CB        -70.6636   22.1026  -75.0105 C.3       7 UNK        -0.1958 
     37 N         -71.8805   23.4399  -76.6602 N.am      7 UNK        -0.4454 
     38 C         -72.1033   24.2231  -77.7244 C.2       7 UNK         0.5089 
     39 O         -71.2137   24.8151  -78.3355 O.2       7 UNK        -0.5125 
     40 CA        -73.5661   24.4014  -78.1734 C.3       6 UNK         0.0408 
     41 CB        -73.8615   23.5082  -79.3889 C.3       6 UNK        -0.1791 
     42 N         -74.5857   24.1616  -77.1407 N.am      6 UNK        -0.4762 
     43 C         -74.6888   24.8183  -75.9760 C.2       6 UNK         0.5007 
     44 O         -73.8348   25.5998  -75.5508 O.2       6 UNK        -0.5032 
     45 CA        -75.9445   24.5585  -75.1251 C.3       5 UNK         0.0783 
     46 C46       -75.5702   23.7655  -73.8504 C.3       11 UNK        -0.0857 
     47 S47       -77.0175   23.3945  -72.8039 S.3       11 UNK        -0.2512 
     48 C48       -76.6022   24.2646  -71.2599 C.3       11 UNK         0.0225 
     49 N         -76.6085   25.8286  -74.8197 N.am      5 UNK        -0.4615 
     50 C         -77.1899   26.6198  -75.7285 C.2       4 UNK         0.5053 
     51 O         -77.2528   26.3581  -76.9323 O.2       4 UNK        -0.5105 
     52 CA        -77.7820   27.9406  -75.2097 C.3       4 UNK         0.0263 
     53 CB        -76.7954   29.0919  -75.4605 C.3       4 UNK        -0.1981 
     54 N         -79.0667   28.2561  -75.8410 N.am      4 UNK        -0.4224 
     55 C         -80.1607   27.4914  -75.7380 C.2       3 UNK         0.4895 
     56 O         -80.2163   26.4617  -75.0558 O.2       3 UNK        -0.5091 
     57 CA        -81.3994   27.9393  -76.5291 C.3       3 UNK         0.0250 
     58 CB        -81.2088   27.7452  -78.0446 C.3       3 UNK        -0.1996 
     59 N         -82.5052   27.1197  -76.0582 N.am      3 UNK        -0.4254 
     60 C         -83.8144   27.3829  -76.0868 C.2       2 UNK         0.5004 
     61 O         -84.3142   28.3592  -76.6461 O.2       2 UNK        -0.5226 
     62 CA        -84.7106   26.3801  -75.3328 C.3       2 UNK         0.0269 
     63 CB        -85.2588   25.3142  -76.2953 C.3       2 UNK        -0.1926 
     64 N         -83.9747   25.7202  -74.2456 N.am      2 UNK        -0.4687 
     65 C         -83.6915   26.3039  -73.0708 C.2       1 UNK         0.5165 
     66 O         -84.2336   27.3457  -72.6967 O.2       1 UNK        -0.5079 
     67 H67       -80.8555   22.7266  -75.0619 H         1 UNK         0.0900 
     68 H68       -79.8856   22.3072  -73.6465 H         1 UNK         0.0900 
     69 H69       -79.7192   23.8978  -74.3860 H         1 UNK         0.0900 
     70 H70       -80.9608   25.5545  -73.5212 H         1 UNK         0.2959 
     71 H71       -83.1417   24.9032  -71.5901 H         1 UNK         0.1079 
     72 H72       -82.6659   27.0848  -70.5570 H         1 UNK         0.0837 
     73 H73       -81.2798   26.0418  -70.5378 H         1 UNK         0.0837 
     74 H74       -79.9865   27.8588  -69.7586 H         1 UNK         0.0685 
     75 H75       -79.5934   29.3362  -70.5877 H         1 UNK         0.0685 
     76 H76       -78.9136   25.6295  -70.8145 H         1 UNK         0.1434 
     77 H77       -74.8041   26.2274  -71.8791 H         1 UNK         0.1329 
     78 H78       -77.4268   29.5934  -71.4274 H         1 UNK         0.1335 
     79 H79       -74.1798   28.4451  -72.8109 H         1 UNK         0.0680 
     80 H80       -74.1695   28.9825  -71.1433 H         1 UNK         0.0680 
     81 H81       -73.5763   32.3080  -72.2321 H         1 UNK         0.1032 
     82 H82       -72.8142   30.7442  -72.1979 H         1 UNK         0.1032 
     83 H83       -73.8204   32.1858  -74.7040 H         1 UNK         0.0461 
     84 H84       -69.7567   32.2430  -74.6527 H         1 UNK         0.3453 
     85 H85       -70.6125   30.7357  -74.8830 H         1 UNK         0.3453 
     86 H86       -73.0088   29.4369  -74.4030 H         1 UNK         0.2984 
     87 H87       -73.7433   28.3606  -77.1014 H         1 UNK         0.0554 
     88 H88       -71.7815   27.7165  -78.5239 H         1 UNK         0.0847 
     89 H89       -70.9071   29.1401  -77.9613 H         1 UNK         0.0847 
     90 H90       -72.3708   29.3220  -78.9176 H         1 UNK         0.0847 
     91 H91       -72.7920   26.9568  -75.7153 H         1 UNK         0.3141 
     92 H92       -69.6723   26.7746  -73.9690 H         1 UNK         0.0743 
     93 H93       -71.4225   27.7922  -72.4747 H         1 UNK         0.0784 
     94 H94       -72.6175   26.6711  -73.1235 H         1 UNK         0.0784 
     95 H95       -71.2411   26.0659  -72.2102 H         1 UNK         0.0784 
     96 H96       -71.9813   25.2040  -75.0647 H         1 UNK         0.3213 
     97 H97       -69.8473   23.0133  -76.7761 H         1 UNK         0.0855 
     98 H98       -71.3933   22.2942  -74.2227 H         1 UNK         0.0814 
     99 H99       -69.7002   21.9334  -74.5272 H         1 UNK         0.0814 
    100 H100      -70.9408   21.1733  -75.5087 H         1 UNK         0.0814 
    101 H101      -72.6723   22.9770  -76.2388 H         1 UNK         0.3105 
    102 H102      -73.6721   25.4423  -78.4865 H         1 UNK         0.0547 
    103 H103      -73.8127   22.4491  -79.1332 H         1 UNK         0.0837 
    104 H104      -74.8499   23.7108  -79.8015 H         1 UNK         0.0837 
    105 H105      -73.1396   23.6832  -80.1881 H         1 UNK         0.0837 
    106 H106      -75.3281   23.5271  -77.4002 H         1 UNK         0.3020 
    107 H107      -76.6462   23.9575  -75.7080 H         1 UNK         0.1245 
    108 H108      -74.8177   24.2987  -73.2674 H         1 UNK         0.0781 
    109 H109      -75.1141   22.8112  -74.1210 H         1 UNK         0.0781 
    110 H110      -77.2158   23.8535  -70.4567 H         1 UNK         0.0836 
    111 H111      -75.5690   24.0529  -70.9802 H         1 UNK         0.0836 
    112 H112      -76.6052   26.1076  -73.8483 H         1 UNK         0.3022 
    113 H113      -77.9544   27.8509  -74.1354 H         1 UNK         0.0747 
    114 H114      -75.8244   28.8745  -75.0142 H         1 UNK         0.0793 
    115 H115      -77.1514   30.0238  -75.0212 H         1 UNK         0.0793 
    116 H116      -76.6306   29.2602  -76.5255 H         1 UNK         0.0793 
    117 H117      -79.0903   29.0678  -76.4404 H         1 UNK         0.3047 
    118 H118      -81.6037   28.9877  -76.3023 H         1 UNK         0.0822 
    119 H119      -80.3906   28.3595  -78.4220 H         1 UNK         0.0807 
    120 H120      -82.1051   28.0281  -78.5971 H         1 UNK         0.0807 
    121 H121      -80.9786   26.7076  -78.2899 H         1 UNK         0.0807 
    122 H122      -82.1869   26.3185  -75.5274 H         1 UNK         0.2946 
    123 H123      -85.5529   26.9355  -74.9133 H         1 UNK         0.1144 
    124 H124      -84.4591   24.7295  -76.7517 H         1 UNK         0.0793 
    125 H125      -85.8270   25.7763  -77.1039 H         1 UNK         0.0793 
    126 H126      -85.9294   24.6245  -75.7825 H         1 UNK         0.0793 
    127 H127      -83.5244   24.8416  -74.4592 H         1 UNK         0.2896 
@<TRIPOS>BOND
     1    1    2 1    
     2    1   67 1    
     3    1   68 1    
     4    1   69 1    
     5    2    3 2    
     6    2    4 am   BACKBONE|DICT|INTERRES
     7    4    5 1    
     8    4   70 1    
     9    5    6 1    
    10    5   65 1    
    11    5   71 1    
    12    6    7 1    
    13    6   72 1    
    14    6   73 1    
    15    7    8 1    
    16    8    9 1    
    17    8   74 1    
    18    8   75 1    
    19    9   10 ar   
    20    9   14 ar   
    21   10   11 ar   
    22   10   76 1    
    23   11   12 ar   
    24   11   48 1    
    25   12   13 ar   
    26   12   77 1    
    27   13   14 ar   
    28   13   15 1    
    29   14   78 1    
    30   15   16 1    
    31   15   79 1    
    32   15   80 1    
    33   16   17 1    
    34   17   18 1    
    35   17   81 1    
    36   17   82 1    
    37   18   19 1    
    38   18   22 1    
    39   18   83 1    
    40   19   20 am   BACKBONE|DICT|INTERRES
    41   19   21 2    
    42   20   84 1    
    43   20   85 1    
    44   22   23 am   BACKBONE|DICT|INTERRES
    45   22   86 1    
    46   23   24 2    
    47   23   25 1    
    48   25   26 1    
    49   25   27 1    
    50   25   87 1    
    51   26   88 1    
    52   26   89 1    
    53   26   90 1    
    54   27   28 am   BACKBONE|DICT|INTERRES
    55   27   91 1    
    56   28   29 2    
    57   28   30 1    
    58   30   31 1    
    59   30   32 1    
    60   30   92 1    
    61   31   93 1    
    62   31   94 1    
    63   31   95 1    
    64   32   33 am   BACKBONE|DICT|INTERRES
    65   32   96 1    
    66   33   34 2    
    67   33   35 1    
    68   35   36 1    
    69   35   37 1    
    70   35   97 1    
    71   36   98 1    
    72   36   99 1    
    73   36  100 1    
    74   37   38 am   BACKBONE|DICT|INTERRES
    75   37  101 1    
    76   38   39 2    
    77   38   40 1    
    78   40   41 1    
    79   40   42 1    
    80   40  102 1    
    81   41  103 1    
    82   41  104 1    
    83   41  105 1    
    84   42   43 am   BACKBONE|DICT|INTERRES
    85   42  106 1    
    86   43   44 2    
    87   43   45 1    
    88   45   46 1    
    89   45   49 1    
    90   45  107 1    
    91   46   47 1    
    92   46  108 1    
    93   46  109 1    
    94   47   48 1    
    95   48  110 1    
    96   48  111 1    
    97   49   50 am   BACKBONE|DICT|INTERRES
    98   49  112 1    
    99   50   51 2    
   100   50   52 1    
   101   52   53 1    
   102   52   54 1    
   103   52  113 1    
   104   53  114 1    
   105   53  115 1    
   106   53  116 1    
   107   54   55 am   BACKBONE|DICT|INTERRES
   108   54  117 1    
   109   55   56 2    
   110   55   57 1    
   111   57   58 1    
   112   57   59 1    
   113   57  118 1    
   114   58  119 1    
   115   58  120 1    
   116   58  121 1    
   117   59   60 am   BACKBONE|DICT|INTERRES
   118   59  122 1    
   119   60   61 2    
   120   60   62 1    
   121   62   63 1    
   122   62   64 1    
   123   62  123 1    
   124   63  124 1    
   125   63  125 1    
   126   63  126 1    
   127   64   65 am   BACKBONE|DICT|INTERRES
   128   64  127 1    
   129   65   66 2    
@<TRIPOS>SUBSTRUCTURE
     1 UNK         1 GROUP             0       ****    0 ROOT    
