@<TRIPOS>MOLECULE
3R135
127   129    1
SMALL
USER_CHARGES


@<TRIPOS>ATOM
      1 CA        -80.2539   25.2951  -71.6040 C.3       0 UNK        -0.1998 
      2 C         -80.5546   25.4513  -73.0872 C.2       0 UNK         0.4909 
      3 O         -80.8992   24.4697  -73.7484 O.2       0 UNK        -0.5240 
      4 N         -80.4215   26.6794  -73.6064 N.am      1 UNK        -0.4739 
      5 CA        -80.6912   27.0739  -74.9946 C.3       1 UNK         0.0864 
      6 C6        -80.5083   28.6006  -75.2125 C.3       11 UNK        -0.0881 
      7 S7        -78.8512   29.2334  -74.7723 S.3       11 UNK        -0.2682 
      8 C8        -79.1491   29.9182  -73.1084 C.3       11 UNK         0.0289 
      9 C9        -77.9292   29.7400  -72.2174 C.ar      11 UNK        -0.0687 
     10 C10       -77.4876   28.4542  -71.8994 C.ar      11 UNK        -0.0823 
     11 C11       -76.3471   28.2587  -71.1179 C.ar      11 UNK        -0.0830 
     12 C12       -75.6715   29.3722  -70.6059 C.ar      11 UNK        -0.1021 
     13 C13       -76.1231   30.6668  -70.8870 C.ar      11 UNK        -0.0753 
     14 C14       -77.2447   30.8449  -71.7044 C.ar      11 UNK        -0.0933 
     15 C15       -75.4194   31.8785  -70.2944 C.3       11 UNK         0.0166 
     16 S16       -74.0917   32.4856  -71.3783 S.3       11 UNK        -0.2615 
     17 C17       -72.6670   31.5048  -70.7925 C.3       11 UNK        -0.0865 
     18 CA        -71.3208   32.0744  -71.3278 C.3       10 UNK         0.0862 
     19 C         -70.0715   31.5054  -70.5844 C.2       10 UNK         0.5551 
     20 N         -68.9113   31.4184  -71.2236 N.am      10 UNK        -0.7319 
     21 O         -70.1405   31.1722  -69.4036 O.2       10 UNK        -0.5018 
     22 N         -71.2489   32.0380  -72.8016 N.am      10 UNK        -0.4509 
     23 C         -71.1686   30.9352  -73.5574 C.2       10 UNK         0.4899 
     24 O         -71.0447   29.7935  -73.1073 O.2       10 UNK        -0.4839 
     25 CA        -71.1948   31.1661  -75.0799 C.3       9 UNK         0.0222 
     26 CB        -69.8199   31.6459  -75.5765 C.3       9 UNK        -0.1966 
     27 N         -71.5683   29.9572  -75.8184 N.am      9 UNK        -0.4218 
     28 C         -72.7737   29.3735  -75.7840 C.2       9 UNK         0.5020 
     29 O         -73.7495   29.8385  -75.1889 O.2       9 UNK        -0.5274 
     30 CA        -72.8749   28.0239  -76.5189 C.3       8 UNK         0.0270 
     31 CB        -72.2102   26.9113  -75.6900 C.3       8 UNK        -0.1976 
     32 N         -74.2561   27.6331  -76.8072 N.am      8 UNK        -0.4313 
     33 C         -75.0653   28.2489  -77.6820 C.2       8 UNK         0.5041 
     34 O         -74.7100   29.1971  -78.3864 O.2       8 UNK        -0.5577 
     35 CA        -76.5057   27.7033  -77.7986 C.3       7 UNK         0.0284 
     36 CB        -77.2119   28.1190  -79.1062 C.3       7 UNK        -0.1958 
     37 N         -76.5954   26.2526  -77.6012 N.am      7 UNK        -0.4454 
     38 C         -75.9645   25.2888  -78.2921 C.2       7 UNK         0.5089 
     39 O         -75.2667   25.4993  -79.2850 O.2       7 UNK        -0.5125 
     40 CA        -76.1354   23.8436  -77.7730 C.3       6 UNK         0.0408 
     41 CB        -74.9106   22.9593  -78.0873 C.3       6 UNK        -0.1791 
     42 N         -76.4739   23.7636  -76.3440 N.am      6 UNK        -0.4762 
     43 C         -75.7594   24.2460  -75.3126 C.2       6 UNK         0.5007 
     44 O         -74.6781   24.8166  -75.4523 O.2       6 UNK        -0.5032 
     45 CA        -76.3638   24.1124  -73.8991 C.3       5 UNK         0.0783 
     46 C46       -76.5716   25.4990  -73.2331 C.3       11 UNK        -0.0857 
     47 S47       -75.1065   26.0671  -72.2981 S.3       11 UNK        -0.2512 
     48 C48       -75.8547   26.8463  -70.8264 C.3       11 UNK         0.0225 
     49 N         -77.6100   23.3298  -73.9092 N.am      5 UNK        -0.4615 
     50 C         -77.6721   22.0252  -73.6084 C.2       4 UNK         0.5053 
     51 O         -76.6871   21.3484  -73.3128 O.2       4 UNK        -0.5105 
     52 CA        -79.0473   21.3447  -73.6322 C.3       4 UNK         0.0263 
     53 CB        -79.6997   21.3991  -72.2413 C.3       4 UNK        -0.1981 
     54 N         -79.9632   21.9284  -74.6165 N.am      4 UNK        -0.4224 
     55 C         -80.3101   21.3236  -75.7610 C.2       3 UNK         0.4895 
     56 O         -79.8120   20.2722  -76.1654 O.2       3 UNK        -0.5091 
     57 CA        -81.4244   21.9865  -76.5833 C.3       3 UNK         0.0250 
     58 CB        -82.7588   21.9849  -75.8169 C.3       3 UNK        -0.1996 
     59 N         -81.0905   23.3510  -76.9839 N.am      3 UNK        -0.4254 
     60 C         -80.2184   23.6740  -77.9495 C.2       2 UNK         0.5004 
     61 O         -79.5779   22.8468  -78.5972 O.2       2 UNK        -0.5226 
     62 CA        -80.0429   25.1702  -78.2719 C.3       2 UNK         0.0269 
     63 CB        -80.7565   25.5264  -79.5860 C.3       2 UNK        -0.1926 
     64 N         -80.5312   26.0538  -77.2096 N.am      2 UNK        -0.4687 
     65 C         -79.9136   26.2389  -76.0359 C.2       1 UNK         0.5165 
     66 O         -78.8049   25.7659  -75.7679 O.2       1 UNK        -0.5079 
     67 H67       -81.0957   24.8187  -71.1023 H         1 UNK         0.0900 
     68 H68       -79.3741   24.6711  -71.4563 H         1 UNK         0.0900 
     69 H69       -80.0742   26.2549  -71.1200 H         1 UNK         0.0900 
     70 H70       -80.1144   27.4314  -73.0103 H         1 UNK         0.2959 
     71 H71       -81.7487   26.8518  -75.1539 H         1 UNK         0.1079 
     72 H72       -81.2615   29.1450  -74.6408 H         1 UNK         0.0837 
     73 H73       -80.7034   28.8639  -76.2540 H         1 UNK         0.0837 
     74 H74       -79.9986   29.4243  -72.6357 H         1 UNK         0.0685 
     75 H75       -79.4181   30.9714  -73.2027 H         1 UNK         0.0685 
     76 H76       -78.0226   27.6042  -72.2911 H         1 UNK         0.1434 
     77 H77       -74.7963   29.2340  -69.9860 H         1 UNK         0.1329 
     78 H78       -77.5861   31.8448  -71.9354 H         1 UNK         0.1335 
     79 H79       -76.1401   32.6845  -70.1474 H         1 UNK         0.0680 
     80 H80       -75.0264   31.6463  -69.3035 H         1 UNK         0.0680 
     81 H81       -72.6804   31.5157  -69.7014 H         1 UNK         0.1032 
     82 H82       -72.7958   30.4631  -71.0907 H         1 UNK         0.1032 
     83 H83       -71.3048   33.1347  -71.0722 H         1 UNK         0.0461 
     84 H84       -68.1036   31.0614  -70.7378 H         1 UNK         0.3453 
     85 H85       -68.8412   31.6933  -72.1899 H         1 UNK         0.3453 
     86 H86       -71.3196   32.9353  -73.2594 H         1 UNK         0.2984 
     87 H87       -71.9369   31.9370  -75.2985 H         1 UNK         0.0554 
     88 H88       -69.5247   32.5746  -75.0864 H         1 UNK         0.0847 
     89 H89       -69.8303   31.8412  -76.6491 H         1 UNK         0.0847 
     90 H90       -69.0390   30.9109  -75.3763 H         1 UNK         0.0847 
     91 H91       -70.8205   29.4815  -76.3018 H         1 UNK         0.3141 
     92 H92       -72.3482   28.1132  -77.4714 H         1 UNK         0.0743 
     93 H93       -71.1655   27.1414  -75.4774 H         1 UNK         0.0784 
     94 H94       -72.2289   25.9578  -76.2185 H         1 UNK         0.0784 
     95 H95       -72.7135   26.7721  -74.7318 H         1 UNK         0.0784 
     96 H96       -74.6144   26.8431  -76.2830 H         1 UNK         0.3213 
     97 H97       -77.0583   28.1523  -76.9723 H         1 UNK         0.0855 
     98 H98       -76.6931   27.7358  -79.9852 H         1 UNK         0.0814 
     99 H99       -77.2530   29.2048  -79.2000 H         1 UNK         0.0814 
    100 H100      -78.2389   27.7557  -79.1347 H         1 UNK         0.0814 
    101 H101      -77.1757   25.9609  -76.8181 H         1 UNK         0.3105 
    102 H102      -76.9857   23.4278  -78.3129 H         1 UNK         0.0547 
    103 H103      -75.0501   21.9427  -77.7201 H         1 UNK         0.0837 
    104 H104      -73.9991   23.3565  -77.6396 H         1 UNK         0.0837 
    105 H105      -74.7407   22.8922  -79.1625 H         1 UNK         0.0837 
    106 H106      -77.3638   23.3376  -76.1278 H         1 UNK         0.3020 
    107 H107      -75.6171   23.5717  -73.3128 H         1 UNK         0.1245 
    108 H108      -77.3990   25.4340  -72.5287 H         1 UNK         0.0781 
    109 H109      -76.8581   26.2644  -73.9576 H         1 UNK         0.0781 
    110 H110      -75.1053   26.8675  -70.0338 H         1 UNK         0.0836 
    111 H111      -76.6734   26.2334  -70.4467 H         1 UNK         0.0836 
    112 H112      -78.4513   23.8265  -74.1712 H         1 UNK         0.3022 
    113 H113      -78.8711   20.2913  -73.8610 H         1 UNK         0.0747 
    114 H114      -80.6192   20.8142  -72.2161 H         1 UNK         0.0793 
    115 H115      -79.0354   20.9895  -71.4789 H         1 UNK         0.0793 
    116 H116      -79.9476   22.4177  -71.9471 H         1 UNK         0.0793 
    117 H117      -80.4157   22.8057  -74.3613 H         1 UNK         0.3047 
    118 H118      -81.5627   21.3913  -77.4890 H         1 UNK         0.0822 
    119 H119      -83.5743   22.3459  -76.4439 H         1 UNK         0.0807 
    120 H120      -82.7212   22.6124  -74.9253 H         1 UNK         0.0807 
    121 H121      -83.0226   20.9765  -75.4949 H         1 UNK         0.0807 
    122 H122      -81.5513   24.0967  -76.4837 H         1 UNK         0.2946 
    123 H123      -78.9770   25.3449  -78.4129 H         1 UNK         0.1144 
    124 H124      -80.5822   26.5662  -79.8633 H         1 UNK         0.0793 
    125 H125      -81.8340   25.3718  -79.5165 H         1 UNK         0.0793 
    126 H126      -80.3913   24.9092  -80.4082 H         1 UNK         0.0793 
    127 H127      -81.4286   26.4902  -77.3682 H         1 UNK         0.2896 
@<TRIPOS>BOND
     1    1    2 1    
     2    1   67 1    
     3    1   68 1    
     4    1   69 1    
     5    2    3 2    
     6    2    4 am   BACKBONE|DICT|INTERRES
     7    4    5 1    
     8    4   70 1    
     9    5    6 1    
    10    5   65 1    
    11    5   71 1    
    12    6    7 1    
    13    6   72 1    
    14    6   73 1    
    15    7    8 1    
    16    8    9 1    
    17    8   74 1    
    18    8   75 1    
    19    9   10 ar   
    20    9   14 ar   
    21   10   11 ar   
    22   10   76 1    
    23   11   12 ar   
    24   11   48 1    
    25   12   13 ar   
    26   12   77 1    
    27   13   14 ar   
    28   13   15 1    
    29   14   78 1    
    30   15   16 1    
    31   15   79 1    
    32   15   80 1    
    33   16   17 1    
    34   17   18 1    
    35   17   81 1    
    36   17   82 1    
    37   18   19 1    
    38   18   22 1    
    39   18   83 1    
    40   19   20 am   BACKBONE|DICT|INTERRES
    41   19   21 2    
    42   20   84 1    
    43   20   85 1    
    44   22   23 am   BACKBONE|DICT|INTERRES
    45   22   86 1    
    46   23   24 2    
    47   23   25 1    
    48   25   26 1    
    49   25   27 1    
    50   25   87 1    
    51   26   88 1    
    52   26   89 1    
    53   26   90 1    
    54   27   28 am   BACKBONE|DICT|INTERRES
    55   27   91 1    
    56   28   29 2    
    57   28   30 1    
    58   30   31 1    
    59   30   32 1    
    60   30   92 1    
    61   31   93 1    
    62   31   94 1    
    63   31   95 1    
    64   32   33 am   BACKBONE|DICT|INTERRES
    65   32   96 1    
    66   33   34 2    
    67   33   35 1    
    68   35   36 1    
    69   35   37 1    
    70   35   97 1    
    71   36   98 1    
    72   36   99 1    
    73   36  100 1    
    74   37   38 am   BACKBONE|DICT|INTERRES
    75   37  101 1    
    76   38   39 2    
    77   38   40 1    
    78   40   41 1    
    79   40   42 1    
    80   40  102 1    
    81   41  103 1    
    82   41  104 1    
    83   41  105 1    
    84   42   43 am   BACKBONE|DICT|INTERRES
    85   42  106 1    
    86   43   44 2    
    87   43   45 1    
    88   45   46 1    
    89   45   49 1    
    90   45  107 1    
    91   46   47 1    
    92   46  108 1    
    93   46  109 1    
    94   47   48 1    
    95   48  110 1    
    96   48  111 1    
    97   49   50 am   BACKBONE|DICT|INTERRES
    98   49  112 1    
    99   50   51 2    
   100   50   52 1    
   101   52   53 1    
   102   52   54 1    
   103   52  113 1    
   104   53  114 1    
   105   53  115 1    
   106   53  116 1    
   107   54   55 am   BACKBONE|DICT|INTERRES
   108   54  117 1    
   109   55   56 2    
   110   55   57 1    
   111   57   58 1    
   112   57   59 1    
   113   57  118 1    
   114   58  119 1    
   115   58  120 1    
   116   58  121 1    
   117   59   60 am   BACKBONE|DICT|INTERRES
   118   59  122 1    
   119   60   61 2    
   120   60   62 1    
   121   62   63 1    
   122   62   64 1    
   123   62  123 1    
   124   63  124 1    
   125   63  125 1    
   126   63  126 1    
   127   64   65 am   BACKBONE|DICT|INTERRES
   128   64  127 1    
   129   65   66 2    
@<TRIPOS>SUBSTRUCTURE
     1 UNK         1 GROUP             0       ****    0 ROOT    
