@<TRIPOS>MOLECULE
3R135
127   129    1
SMALL
USER_CHARGES


@<TRIPOS>ATOM
      1 CA        -80.8780   25.5154  -69.9487 C.3       0 UNK        -0.1998 
      2 C         -82.0360   25.8727  -70.8670 C.2       0 UNK         0.4909 
      3 O         -83.0766   25.2161  -70.8228 O.2       0 UNK        -0.5240 
      4 N         -81.8674   26.9147  -71.6920 N.am      1 UNK        -0.4739 
      5 CA        -82.8654   27.3848  -72.6619 C.3       1 UNK         0.0864 
      6 C6        -82.5815   28.8347  -73.1354 C.3       11 UNK        -0.0881 
      7 S7        -80.9154   29.0632  -73.8499 S.3       11 UNK        -0.2682 
      8 C8        -80.0403   29.9211  -72.5030 C.3       11 UNK         0.0289 
      9 C9        -78.5631   29.5723  -72.5476 C.ar      11 UNK        -0.0687 
     10 C10       -78.0708   28.5150  -71.7777 C.ar      11 UNK        -0.0823 
     11 C11       -76.7378   28.1084  -71.8962 C.ar      11 UNK        -0.0830 
     12 C12       -75.8862   28.8103  -72.7550 C.ar      11 UNK        -0.1021 
     13 C13       -76.3561   29.8964  -73.4991 C.ar      11 UNK        -0.0753 
     14 C14       -77.6986   30.2699  -73.3952 C.ar      11 UNK        -0.0933 
     15 C15       -75.4331   30.6304  -74.4603 C.3       11 UNK         0.0166 
     16 S16       -74.7157   32.1334  -73.7222 S.3       11 UNK        -0.2615 
     17 C17       -73.4192   31.4631  -72.6212 C.3       11 UNK        -0.0865 
     18 CA        -72.0129   31.4629  -73.2791 C.3       10 UNK         0.0862 
     19 C         -70.8995   31.1101  -72.2474 C.2       10 UNK         0.5551 
     20 N         -70.0683   30.0972  -72.4676 N.am      10 UNK        -0.7319 
     21 O         -70.7820   31.7795  -71.2240 O.2       10 UNK        -0.5018 
     22 N         -71.9911   30.6290  -74.4892 N.am      10 UNK        -0.4509 
     23 C         -71.1740   30.7956  -75.5343 C.2       10 UNK         0.4899 
     24 O         -70.3736   31.7264  -75.6399 O.2       10 UNK        -0.4839 
     25 CA        -71.2762   29.7273  -76.6420 C.3       9 UNK         0.0222 
     26 CB        -70.0261   29.6820  -77.5459 C.3       9 UNK        -0.1966 
     27 N         -71.5964   28.3849  -76.1329 N.am      9 UNK        -0.4218 
     28 C         -70.8806   27.6583  -75.2560 C.2       9 UNK         0.5020 
     29 O         -69.8554   28.0705  -74.7110 O.2       9 UNK        -0.5274 
     30 CA        -71.3958   26.2531  -74.8815 C.3       8 UNK         0.0270 
     31 CB        -71.8719   26.2372  -73.4188 C.3       8 UNK        -0.1976 
     32 N         -72.4739   25.7651  -75.7475 N.am      8 UNK        -0.4313 
     33 C         -72.3134   25.3902  -77.0270 C.2       8 UNK         0.5041 
     34 O         -71.2118   25.3060  -77.5715 O.2       8 UNK        -0.5577 
     35 CA        -73.5755   25.0892  -77.8638 C.3       7 UNK         0.0284 
     36 CB        -73.7565   23.5708  -78.0242 C.3       7 UNK        -0.1958 
     37 N         -74.8214   25.6619  -77.3436 N.am      7 UNK        -0.4454 
     38 C         -75.0506   26.9518  -77.0585 C.2       7 UNK         0.5089 
     39 O         -74.2442   27.8574  -77.2749 O.2       7 UNK        -0.5125 
     40 CA        -76.3656   27.2736  -76.3260 C.3       6 UNK         0.0408 
     41 CB        -77.4662   27.6486  -77.3269 C.3       6 UNK        -0.1791 
     42 N         -76.8422   26.2039  -75.4387 N.am      6 UNK        -0.4762 
     43 C         -76.1400   25.6558  -74.4317 C.2       6 UNK         0.5007 
     44 O         -74.9679   25.9362  -74.1811 O.2       6 UNK        -0.5032 
     45 CA        -76.8577   24.5799  -73.5994 C.3       5 UNK         0.0783 
     46 C46       -77.9301   25.1981  -72.6638 C.3       11 UNK        -0.0857 
     47 S47       -77.3385   25.4952  -70.9617 S.3       11 UNK        -0.2512 
     48 C48       -76.1931   26.9144  -71.1148 C.3       11 UNK         0.0225 
     49 N         -77.4282   23.5816  -74.5027 N.am      5 UNK        -0.4615 
     50 C         -76.7356   22.5747  -75.0522 C.2       4 UNK         0.5053 
     51 O         -75.5730   22.3017  -74.7548 O.2       4 UNK        -0.5105 
     52 CA        -77.4497   21.7348  -76.1276 C.3       4 UNK         0.0263 
     53 CB        -78.0660   20.4736  -75.5014 C.3       4 UNK        -0.1981 
     54 N         -78.4901   22.4729  -76.8492 N.am      4 UNK        -0.4224 
     55 C         -78.2673   23.5269  -77.6476 C.2       3 UNK         0.4895 
     56 O         -77.1478   23.9658  -77.9083 O.2       3 UNK        -0.5091 
     57 CA        -79.5079   24.2442  -78.2077 C.3       3 UNK         0.0250 
     58 CB        -79.9311   23.6163  -79.5450 C.3       3 UNK        -0.1996 
     59 N         -80.6544   24.2661  -77.2907 N.am      3 UNK        -0.4254 
     60 C         -80.6529   24.7879  -76.0555 C.2       2 UNK         0.5004 
     61 O         -79.6566   25.2743  -75.5107 O.2       2 UNK        -0.5226 
     62 CA        -81.9718   24.6889  -75.2833 C.3       2 UNK         0.0269 
     63 CB        -82.1318   23.2889  -74.6647 C.3       2 UNK        -0.1926 
     64 N         -81.9891   25.6841  -74.2153 N.am      2 UNK        -0.4687 
     65 C         -83.0528   26.4095  -73.8463 C.2       1 UNK         0.5165 
     66 O         -84.1582   26.3203  -74.3839 O.2       1 UNK        -0.5079 
     67 H67       -80.3954   24.6005  -70.2912 H         1 UNK         0.0900 
     68 H68       -80.1293   26.3057  -69.9128 H         1 UNK         0.0900 
     69 H69       -81.2388   25.3511  -68.9337 H         1 UNK         0.0900 
     70 H70       -80.9902   27.4126  -71.7028 H         1 UNK         0.2959 
     71 H71       -83.8273   27.4051  -72.1440 H         1 UNK         0.1079 
     72 H72       -82.7143   29.5246  -72.3007 H         1 UNK         0.0837 
     73 H73       -83.3189   29.1434  -73.8791 H         1 UNK         0.0837 
     74 H74       -80.4591   29.6408  -71.5354 H         1 UNK         0.0685 
     75 H75       -80.1831   30.9981  -72.6031 H         1 UNK         0.0685 
     76 H76       -78.7358   27.9804  -71.1154 H         1 UNK         0.1434 
     77 H77       -74.8575   28.4949  -72.8604 H         1 UNK         0.1329 
     78 H78       -78.0772   31.0871  -73.9939 H         1 UNK         0.1335 
     79 H79       -75.9948   30.9176  -75.3505 H         1 UNK         0.0680 
     80 H80       -74.6421   29.9680  -74.8121 H         1 UNK         0.0680 
     81 H81       -73.6875   30.4638  -72.2797 H         1 UNK         0.1032 
     82 H82       -73.4154   32.0867  -71.7251 H         1 UNK         0.1032 
     83 H83       -71.8042   32.4901  -73.5845 H         1 UNK         0.0461 
     84 H84       -70.1213   29.5426  -73.3143 H         1 UNK         0.3453 
     85 H85       -69.3548   29.8949  -71.7858 H         1 UNK         0.3453 
     86 H86       -72.5939   29.8218  -74.4840 H         1 UNK         0.2984 
     87 H87       -72.1222   30.0207  -77.2653 H         1 UNK         0.0554 
     88 H88       -69.8625   30.6414  -78.0381 H         1 UNK         0.0847 
     89 H89       -70.1306   28.9314  -78.3293 H         1 UNK         0.0847 
     90 H90       -69.1246   29.4505  -76.9777 H         1 UNK         0.0847 
     91 H91       -72.4553   27.9841  -76.5025 H         1 UNK         0.3141 
     92 H92       -70.5529   25.5649  -74.9719 H         1 UNK         0.0743 
     93 H93       -71.0586   26.4975  -72.7399 H         1 UNK         0.0784 
     94 H94       -72.6769   26.9529  -73.2481 H         1 UNK         0.0784 
     95 H95       -72.2332   25.2507  -73.1275 H         1 UNK         0.0784 
     96 H96       -73.4123   25.7928  -75.3546 H         1 UNK         0.3213 
     97 H97       -73.4120   25.5228  -78.8523 H         1 UNK         0.0855 
     98 H98       -73.9787   23.0901  -77.0705 H         1 UNK         0.0814 
     99 H99       -72.8530   23.1067  -78.4223 H         1 UNK         0.0814 
    100 H100      -74.5680   23.3380  -78.7138 H         1 UNK         0.0814 
    101 H101      -75.5886   25.0114  -77.2003 H         1 UNK         0.3105 
    102 H102      -76.1793   28.1412  -75.6946 H         1 UNK         0.0547 
    103 H103      -78.4105   27.8608  -76.8246 H         1 UNK         0.0837 
    104 H104      -77.6351   26.8523  -78.0503 H         1 UNK         0.0837 
    105 H105      -77.1887   28.5411  -77.8891 H         1 UNK         0.0837 
    106 H106      -77.8066   25.9071  -75.5634 H         1 UNK         0.3020 
    107 H107      -76.1023   24.0840  -72.9848 H         1 UNK         0.1245 
    108 H108      -78.7674   24.5060  -72.5597 H         1 UNK         0.0781 
    109 H109      -78.3754   26.1045  -73.0775 H         1 UNK         0.0781 
    110 H110      -75.2672   26.5550  -71.5660 H         1 UNK         0.0836 
    111 H111      -75.9271   27.2520  -70.1125 H         1 UNK         0.0836 
    112 H112      -78.3585   23.7821  -74.8482 H         1 UNK         0.3022 
    113 H113      -76.6950   21.4255  -76.8541 H         1 UNK         0.0747 
    114 H114      -78.5039   19.8259  -76.2612 H         1 UNK         0.0793 
    115 H115      -77.3085   19.8885  -74.9777 H         1 UNK         0.0793 
    116 H116      -78.8447   20.7199  -74.7784 H         1 UNK         0.0793 
    117 H117      -79.4447   22.1812  -76.6990 H         1 UNK         0.3047 
    118 H118      -79.2298   25.2811  -78.3972 H         1 UNK         0.0822 
    119 H119      -80.7423   24.1778  -80.0089 H         1 UNK         0.0807 
    120 H120      -80.2629   22.5846  -79.4220 H         1 UNK         0.0807 
    121 H121      -79.1003   23.6092  -80.2525 H         1 UNK         0.0807 
    122 H122      -81.5142   23.8722  -77.6460 H         1 UNK         0.2946 
    123 H123      -82.7897   24.8772  -75.9829 H         1 UNK         0.1144 
    124 H124      -81.3189   23.0579  -73.9747 H         1 UNK         0.0793 
    125 H125      -82.1420   22.5141  -75.4322 H         1 UNK         0.0793 
    126 H126      -83.0685   23.2069  -74.1127 H         1 UNK         0.0793 
    127 H127      -81.0917   25.8777  -73.7917 H         1 UNK         0.2896 
@<TRIPOS>BOND
     1    1    2 1    
     2    1   67 1    
     3    1   68 1    
     4    1   69 1    
     5    2    3 2    
     6    2    4 am   BACKBONE|DICT|INTERRES
     7    4    5 1    
     8    4   70 1    
     9    5    6 1    
    10    5   65 1    
    11    5   71 1    
    12    6    7 1    
    13    6   72 1    
    14    6   73 1    
    15    7    8 1    
    16    8    9 1    
    17    8   74 1    
    18    8   75 1    
    19    9   10 ar   
    20    9   14 ar   
    21   10   11 ar   
    22   10   76 1    
    23   11   12 ar   
    24   11   48 1    
    25   12   13 ar   
    26   12   77 1    
    27   13   14 ar   
    28   13   15 1    
    29   14   78 1    
    30   15   16 1    
    31   15   79 1    
    32   15   80 1    
    33   16   17 1    
    34   17   18 1    
    35   17   81 1    
    36   17   82 1    
    37   18   19 1    
    38   18   22 1    
    39   18   83 1    
    40   19   20 am   BACKBONE|DICT|INTERRES
    41   19   21 2    
    42   20   84 1    
    43   20   85 1    
    44   22   23 am   BACKBONE|DICT|INTERRES
    45   22   86 1    
    46   23   24 2    
    47   23   25 1    
    48   25   26 1    
    49   25   27 1    
    50   25   87 1    
    51   26   88 1    
    52   26   89 1    
    53   26   90 1    
    54   27   28 am   BACKBONE|DICT|INTERRES
    55   27   91 1    
    56   28   29 2    
    57   28   30 1    
    58   30   31 1    
    59   30   32 1    
    60   30   92 1    
    61   31   93 1    
    62   31   94 1    
    63   31   95 1    
    64   32   33 am   BACKBONE|DICT|INTERRES
    65   32   96 1    
    66   33   34 2    
    67   33   35 1    
    68   35   36 1    
    69   35   37 1    
    70   35   97 1    
    71   36   98 1    
    72   36   99 1    
    73   36  100 1    
    74   37   38 am   BACKBONE|DICT|INTERRES
    75   37  101 1    
    76   38   39 2    
    77   38   40 1    
    78   40   41 1    
    79   40   42 1    
    80   40  102 1    
    81   41  103 1    
    82   41  104 1    
    83   41  105 1    
    84   42   43 am   BACKBONE|DICT|INTERRES
    85   42  106 1    
    86   43   44 2    
    87   43   45 1    
    88   45   46 1    
    89   45   49 1    
    90   45  107 1    
    91   46   47 1    
    92   46  108 1    
    93   46  109 1    
    94   47   48 1    
    95   48  110 1    
    96   48  111 1    
    97   49   50 am   BACKBONE|DICT|INTERRES
    98   49  112 1    
    99   50   51 2    
   100   50   52 1    
   101   52   53 1    
   102   52   54 1    
   103   52  113 1    
   104   53  114 1    
   105   53  115 1    
   106   53  116 1    
   107   54   55 am   BACKBONE|DICT|INTERRES
   108   54  117 1    
   109   55   56 2    
   110   55   57 1    
   111   57   58 1    
   112   57   59 1    
   113   57  118 1    
   114   58  119 1    
   115   58  120 1    
   116   58  121 1    
   117   59   60 am   BACKBONE|DICT|INTERRES
   118   59  122 1    
   119   60   61 2    
   120   60   62 1    
   121   62   63 1    
   122   62   64 1    
   123   62  123 1    
   124   63  124 1    
   125   63  125 1    
   126   63  126 1    
   127   64   65 am   BACKBONE|DICT|INTERRES
   128   64  127 1    
   129   65   66 2    
@<TRIPOS>SUBSTRUCTURE
     1 UNK         1 GROUP             0       ****    0 ROOT    
