@<TRIPOS>MOLECULE
3R135
127   129    1
SMALL
USER_CHARGES


@<TRIPOS>ATOM
      1 CA        -80.4943   24.0953  -70.8227 C.3       0 UNK        -0.1998 
      2 C         -81.0540   24.7566  -72.0732 C.2       0 UNK         0.4909 
      3 O         -81.8036   24.1231  -72.8165 O.2       0 UNK        -0.5240 
      4 N         -80.7035   26.0279  -72.3044 N.am      1 UNK        -0.4739 
      5 CA        -81.1123   26.8100  -73.4775 C.3       1 UNK         0.0864 
      6 C6        -80.8366   28.3241  -73.2972 C.3       11 UNK        -0.0881 
      7 S7        -81.5742   28.9982  -71.7685 S.3       11 UNK        -0.2682 
      8 C8        -80.4359   30.3692  -71.3664 C.3       11 UNK         0.0289 
      9 C9        -78.9732   29.9499  -71.2360 C.ar      11 UNK        -0.0687 
     10 C10       -78.6093   28.7997  -70.5247 C.ar      11 UNK        -0.0823 
     11 C11       -77.2677   28.4193  -70.4243 C.ar      11 UNK        -0.0830 
     12 C12       -76.2852   29.2217  -71.0105 C.ar      11 UNK        -0.1021 
     13 C13       -76.6298   30.3691  -71.7288 C.ar      11 UNK        -0.0753 
     14 C14       -77.9765   30.7290  -71.8341 C.ar      11 UNK        -0.0933 
     15 C15       -75.5469   31.2225  -72.3767 C.3       11 UNK         0.0166 
     16 S16       -75.6464   31.1678  -74.1935 S.3       11 UNK        -0.2615 
     17 C17       -74.0875   31.9918  -74.6735 C.3       11 UNK        -0.0865 
     18 CA        -73.1505   31.0745  -75.5170 C.3       10 UNK         0.0862 
     19 C         -71.9186   31.8383  -76.0933 C.2       10 UNK         0.5551 
     20 N         -70.7579   31.2091  -76.2370 N.am      10 UNK        -0.7319 
     21 O         -72.0206   33.0110  -76.4465 O.2       10 UNK        -0.5018 
     22 N         -72.8265   29.7958  -74.8547 N.am      10 UNK        -0.4509 
     23 C         -72.1551   29.6595  -73.7028 C.2       10 UNK         0.4899 
     24 O         -71.7111   30.6060  -73.0522 O.2       10 UNK        -0.4839 
     25 CA        -71.9427   28.2374  -73.1602 C.3       9 UNK         0.0222 
     26 CB        -72.9532   27.9398  -72.0458 C.3       9 UNK        -0.1966 
     27 N         -72.0380   27.1798  -74.1672 N.am      9 UNK        -0.4218 
     28 C         -71.0574   26.8533  -75.0191 C.2       9 UNK         0.5020 
     29 O         -70.0194   27.5032  -75.1499 O.2       9 UNK        -0.5274 
     30 CA        -71.2581   25.5755  -75.8458 C.3       8 UNK         0.0270 
     31 CB        -71.1564   24.3264  -74.9526 C.3       8 UNK        -0.1976 
     32 N         -72.5563   25.5859  -76.5170 N.am      8 UNK        -0.4313 
     33 C         -72.7354   25.7900  -77.8289 C.2       8 UNK         0.5041 
     34 O         -71.8146   25.9274  -78.6359 O.2       8 UNK        -0.5577 
     35 CA        -74.1873   25.8599  -78.3393 C.3       7 UNK         0.0284 
     36 CB        -74.5935   24.5273  -78.9870 C.3       7 UNK        -0.1958 
     37 N         -75.1562   26.2314  -77.2997 N.am      7 UNK        -0.4454 
     38 C         -75.1872   27.4463  -76.7306 C.2       7 UNK         0.5089 
     39 O         -74.4331   28.3620  -77.0567 O.2       7 UNK        -0.5125 
     40 CA        -76.1755   27.6921  -75.5804 C.3       6 UNK         0.0408 
     41 CB        -77.4277   28.4226  -76.0853 C.3       6 UNK        -0.1791 
     42 N         -76.5643   26.5057  -74.8167 N.am      6 UNK        -0.4762 
     43 C         -75.7251   25.7574  -74.0857 C.2       6 UNK         0.5007 
     44 O         -74.4963   25.8361  -74.1594 O.2       6 UNK        -0.5032 
     45 CA        -76.3716   24.7501  -73.1219 C.3       5 UNK         0.0783 
     46 C46       -77.0591   25.4497  -71.9211 C.3       11 UNK        -0.0857 
     47 S47       -75.8663   26.0086  -70.6614 S.3       11 UNK        -0.2512 
     48 C48       -76.8773   27.1562  -69.6644 C.3       11 UNK         0.0225 
     49 N         -77.3157   23.9166  -73.8634 N.am      5 UNK        -0.4615 
     50 C         -77.0906   22.6450  -74.2042 C.2       4 UNK         0.5053 
     51 O         -76.0948   22.0063  -73.8617 O.2       4 UNK        -0.5105 
     52 CA        -78.1547   21.9507  -75.0707 C.3       4 UNK         0.0263 
     53 CB        -79.3054   21.4425  -74.1863 C.3       4 UNK        -0.1981 
     54 N         -78.7152   22.7202  -76.1901 N.am      4 UNK        -0.4224 
     55 C         -78.0586   23.4748  -77.0859 C.2       3 UNK         0.4895 
     56 O         -76.8919   23.8447  -76.9694 O.2       3 UNK        -0.5091 
     57 CA        -78.8338   23.8701  -78.3579 C.3       3 UNK         0.0250 
     58 CB        -78.4706   22.9081  -79.5008 C.3       3 UNK        -0.1996 
     59 N         -80.2900   23.8456  -78.1713 N.am      3 UNK        -0.4254 
     60 C         -81.0608   24.7796  -77.5949 C.2       2 UNK         0.5004 
     61 O         -82.2625   24.5895  -77.4056 O.2       2 UNK        -0.5226 
     62 CA        -80.4647   26.1456  -77.2062 C.3       2 UNK         0.0269 
     63 CB        -80.8032   27.2034  -78.2688 C.3       2 UNK        -0.1926 
     64 N         -80.9986   26.5737  -75.9155 N.am      2 UNK        -0.4687 
     65 C         -80.4050   26.3031  -74.7488 C.2       1 UNK         0.5165 
     66 O         -79.3128   25.7336  -74.6608 O.2       1 UNK        -0.5079 
     67 H67       -81.3048   23.6846  -70.2212 H         1 UNK         0.0900 
     68 H68       -79.9383   24.7984  -70.2029 H         1 UNK         0.0900 
     69 H69       -79.8272   23.2787  -71.0980 H         1 UNK         0.0900 
     70 H70       -80.0938   26.5068  -71.6600 H         1 UNK         0.2959 
     71 H71       -82.1870   26.6670  -73.6116 H         1 UNK         0.1079 
     72 H72       -79.7613   28.5089  -73.2987 H         1 UNK         0.0837 
     73 H73       -81.2393   28.8917  -74.1383 H         1 UNK         0.0837 
     74 H74       -80.5465   31.1375  -72.1335 H         1 UNK         0.0685 
     75 H75       -80.7535   30.8235  -70.4271 H         1 UNK         0.0685 
     76 H76       -79.3751   28.2003  -70.0523 H         1 UNK         0.1434 
     77 H77       -75.2482   28.9461  -70.9022 H         1 UNK         0.1329 
     78 H78       -78.2444   31.6187  -72.3876 H         1 UNK         0.1335 
     79 H79       -74.5578   30.8853  -72.0627 H         1 UNK         0.0680 
     80 H80       -75.6461   32.2554  -72.0403 H         1 UNK         0.0680 
     81 H81       -74.3617   32.8795  -75.2464 H         1 UNK         0.1032 
     82 H82       -73.5681   32.3628  -73.7887 H         1 UNK         0.1032 
     83 H83       -73.7164   30.7942  -76.4050 H         1 UNK         0.0461 
     84 H84       -69.9688   31.7057  -76.6198 H         1 UNK         0.3453 
     85 H85       -70.6626   30.2459  -75.9541 H         1 UNK         0.3453 
     86 H86       -73.1469   28.9704  -75.3435 H         1 UNK         0.2984 
     87 H87       -70.9430   28.2039  -72.7216 H         1 UNK         0.0554 
     88 H88       -72.7638   26.9717  -71.5817 H         1 UNK         0.0847 
     89 H89       -73.9715   27.9287  -72.4350 H         1 UNK         0.0847 
     90 H90       -72.9026   28.6925  -71.2579 H         1 UNK         0.0847 
     91 H91       -72.8811   26.6082  -74.1353 H         1 UNK         0.3141 
     92 H92       -70.4490   25.5259  -76.5778 H         1 UNK         0.0743 
     93 H93       -71.9508   24.2907  -74.2057 H         1 UNK         0.0784 
     94 H94       -71.2170   23.4136  -75.5458 H         1 UNK         0.0784 
     95 H95       -70.2048   24.3033  -74.4198 H         1 UNK         0.0784 
     96 H96       -73.3768   25.5116  -75.9259 H         1 UNK         0.3213 
     97 H97       -74.2190   26.6305  -79.1130 H         1 UNK         0.0855 
     98 H98       -74.5681   23.7059  -78.2700 H         1 UNK         0.0814 
     99 H99       -73.9169   24.2676  -79.8023 H         1 UNK         0.0814 
    100 H100      -75.5980   24.5813  -79.4056 H         1 UNK         0.0814 
    101 H101      -75.7947   25.5065  -76.9812 H         1 UNK         0.3105 
    102 H102      -75.6700   28.3518  -74.8739 H         1 UNK         0.0547 
    103 H103      -77.1578   29.3671  -76.5596 H         1 UNK         0.0837 
    104 H104      -77.9684   27.8348  -76.8238 H         1 UNK         0.0837 
    105 H105      -78.1082   28.6590  -75.2681 H         1 UNK         0.0837 
    106 H106      -77.5612   26.3190  -74.7423 H         1 UNK         0.3020 
    107 H107      -75.5640   24.1282  -72.7281 H         1 UNK         0.1245 
    108 H108      -77.7283   24.7474  -71.4245 H         1 UNK         0.0781 
    109 H109      -77.6830   26.2842  -72.2465 H         1 UNK         0.0781 
    110 H110      -76.3086   27.4439  -68.7793 H         1 UNK         0.0836 
    111 H111      -77.7599   26.6263  -69.3027 H         1 UNK         0.0836 
    112 H112      -78.1456   24.3856  -74.2195 H         1 UNK         0.3022 
    113 H113      -77.6700   21.0803  -75.5171 H         1 UNK         0.0747 
    114 H114      -79.9829   20.7966  -74.7449 H         1 UNK         0.0793 
    115 H115      -78.9279   20.8598  -73.3446 H         1 UNK         0.0793 
    116 H116      -79.8897   22.2671  -73.7764 H         1 UNK         0.0793 
    117 H117      -79.6864   22.5330  -76.3900 H         1 UNK         0.3047 
    118 H118      -78.5071   24.8633  -78.6693 H         1 UNK         0.0822 
    119 H119      -78.9464   23.2052  -80.4356 H         1 UNK         0.0807 
    120 H120      -78.7728   21.8831  -79.2815 H         1 UNK         0.0807 
    121 H121      -77.3944   22.8965  -79.6780 H         1 UNK         0.0807 
    122 H122      -80.7457   22.9947  -78.4689 H         1 UNK         0.2946 
    123 H123      -79.3819   26.0870  -77.1250 H         1 UNK         0.1144 
    124 H124      -80.3878   26.9274  -79.2389 H         1 UNK         0.0793 
    125 H125      -80.3900   28.1772  -78.0051 H         1 UNK         0.0793 
    126 H126      -81.8803   27.3199  -78.3966 H         1 UNK         0.0793 
    127 H127      -81.9115   27.0062  -75.9259 H         1 UNK         0.2896 
@<TRIPOS>BOND
     1    1    2 1    
     2    1   67 1    
     3    1   68 1    
     4    1   69 1    
     5    2    3 2    
     6    2    4 am   BACKBONE|DICT|INTERRES
     7    4    5 1    
     8    4   70 1    
     9    5    6 1    
    10    5   65 1    
    11    5   71 1    
    12    6    7 1    
    13    6   72 1    
    14    6   73 1    
    15    7    8 1    
    16    8    9 1    
    17    8   74 1    
    18    8   75 1    
    19    9   10 ar   
    20    9   14 ar   
    21   10   11 ar   
    22   10   76 1    
    23   11   12 ar   
    24   11   48 1    
    25   12   13 ar   
    26   12   77 1    
    27   13   14 ar   
    28   13   15 1    
    29   14   78 1    
    30   15   16 1    
    31   15   79 1    
    32   15   80 1    
    33   16   17 1    
    34   17   18 1    
    35   17   81 1    
    36   17   82 1    
    37   18   19 1    
    38   18   22 1    
    39   18   83 1    
    40   19   20 am   BACKBONE|DICT|INTERRES
    41   19   21 2    
    42   20   84 1    
    43   20   85 1    
    44   22   23 am   BACKBONE|DICT|INTERRES
    45   22   86 1    
    46   23   24 2    
    47   23   25 1    
    48   25   26 1    
    49   25   27 1    
    50   25   87 1    
    51   26   88 1    
    52   26   89 1    
    53   26   90 1    
    54   27   28 am   BACKBONE|DICT|INTERRES
    55   27   91 1    
    56   28   29 2    
    57   28   30 1    
    58   30   31 1    
    59   30   32 1    
    60   30   92 1    
    61   31   93 1    
    62   31   94 1    
    63   31   95 1    
    64   32   33 am   BACKBONE|DICT|INTERRES
    65   32   96 1    
    66   33   34 2    
    67   33   35 1    
    68   35   36 1    
    69   35   37 1    
    70   35   97 1    
    71   36   98 1    
    72   36   99 1    
    73   36  100 1    
    74   37   38 am   BACKBONE|DICT|INTERRES
    75   37  101 1    
    76   38   39 2    
    77   38   40 1    
    78   40   41 1    
    79   40   42 1    
    80   40  102 1    
    81   41  103 1    
    82   41  104 1    
    83   41  105 1    
    84   42   43 am   BACKBONE|DICT|INTERRES
    85   42  106 1    
    86   43   44 2    
    87   43   45 1    
    88   45   46 1    
    89   45   49 1    
    90   45  107 1    
    91   46   47 1    
    92   46  108 1    
    93   46  109 1    
    94   47   48 1    
    95   48  110 1    
    96   48  111 1    
    97   49   50 am   BACKBONE|DICT|INTERRES
    98   49  112 1    
    99   50   51 2    
   100   50   52 1    
   101   52   53 1    
   102   52   54 1    
   103   52  113 1    
   104   53  114 1    
   105   53  115 1    
   106   53  116 1    
   107   54   55 am   BACKBONE|DICT|INTERRES
   108   54  117 1    
   109   55   56 2    
   110   55   57 1    
   111   57   58 1    
   112   57   59 1    
   113   57  118 1    
   114   58  119 1    
   115   58  120 1    
   116   58  121 1    
   117   59   60 am   BACKBONE|DICT|INTERRES
   118   59  122 1    
   119   60   61 2    
   120   60   62 1    
   121   62   63 1    
   122   62   64 1    
   123   62  123 1    
   124   63  124 1    
   125   63  125 1    
   126   63  126 1    
   127   64   65 am   BACKBONE|DICT|INTERRES
   128   64  127 1    
   129   65   66 2    
@<TRIPOS>SUBSTRUCTURE
     1 UNK         1 GROUP             0       ****    0 ROOT    
