@<TRIPOS>MOLECULE
3R135
127   129    1
SMALL
USER_CHARGES


@<TRIPOS>ATOM
      1 CA        -77.0500   27.0343  -72.1080 C.3       0 UNK        -0.1998 
      2 C         -78.3845   26.4644  -71.6543 C.2       0 UNK         0.4909 
      3 O         -78.4407   25.3168  -71.2100 O.2       0 UNK        -0.5240 
      4 N         -79.4620   27.2519  -71.7675 N.am      1 UNK        -0.4739 
      5 CA        -80.8397   26.8853  -71.4134 C.3       1 UNK         0.0864 
      6 C6        -81.7290   28.1307  -71.1558 C.3       11 UNK        -0.0881 
      7 S7        -81.1242   29.1815  -69.7901 S.3       11 UNK        -0.2682 
      8 C8        -80.9154   30.7947  -70.6105 C.3       11 UNK         0.0289 
      9 C9        -79.5957   30.8791  -71.3618 C.ar      11 UNK        -0.0687 
     10 C10       -79.5157   30.4911  -72.7020 C.ar      11 UNK        -0.0823 
     11 C11       -78.2975   30.5417  -73.3866 C.ar      11 UNK        -0.0830 
     12 C12       -77.1615   31.0287  -72.7301 C.ar      11 UNK        -0.1021 
     13 C13       -77.2364   31.4506  -71.3975 C.ar      11 UNK        -0.0753 
     14 C14       -78.4535   31.3619  -70.7167 C.ar      11 UNK        -0.0933 
     15 C15       -76.0156   32.0406  -70.7016 C.3       11 UNK         0.0166 
     16 S16       -75.2740   30.9146  -69.4727 S.3       11 UNK        -0.2615 
     17 C17       -74.6688   29.5652  -70.5356 C.3       11 UNK        -0.0865 
     18 CA        -73.3416   29.9131  -71.2788 C.3       10 UNK         0.0862 
     19 C         -72.0513   29.4697  -70.5247 C.2       10 UNK         0.5551 
     20 N         -72.0259   29.5906  -69.2043 N.am      10 UNK        -0.7319 
     21 O         -71.0547   29.0672  -71.1211 O.2       10 UNK        -0.5018 
     22 N         -73.4000   29.5029  -72.6895 N.am      10 UNK        -0.4509 
     23 C         -73.5079   28.2473  -73.1421 C.2       10 UNK         0.4899 
     24 O         -73.5078   27.2498  -72.4188 O.2       10 UNK        -0.4839 
     25 CA        -73.7478   28.0661  -74.6526 C.3       9 UNK         0.0222 
     26 CB        -73.7802   29.3749  -75.4759 C.3       9 UNK        -0.1966 
     27 N         -72.8394   27.0902  -75.2574 N.am      9 UNK        -0.4218 
     28 C         -71.5014   27.1556  -75.3125 C.2       9 UNK         0.5020 
     29 O         -70.8388   28.0987  -74.8775 O.2       9 UNK        -0.5274 
     30 CA        -70.7591   25.9697  -75.9571 C.3       8 UNK         0.0270 
     31 CB        -70.2142   25.0297  -74.8687 C.3       8 UNK        -0.1976 
     32 N         -71.5579   25.1859  -76.9048 N.am      8 UNK        -0.4313 
     33 C         -71.9663   25.6055  -78.1103 C.2       8 UNK         0.5041 
     34 O         -71.7548   26.7384  -78.5455 O.2       8 UNK        -0.5577 
     35 CA        -72.7154   24.5949  -78.9953 C.3       7 UNK         0.0284 
     36 CB        -72.7719   23.1622  -78.4228 C.3       7 UNK        -0.1958 
     37 N         -74.0785   25.0725  -79.2010 N.am      7 UNK        -0.4454 
     38 C         -74.6549   25.3224  -80.3839 C.2       7 UNK         0.5089 
     39 O         -74.0801   25.1842  -81.4648 O.2       7 UNK        -0.5125 
     40 CA        -76.1290   25.7797  -80.3812 C.3       6 UNK         0.0408 
     41 CB        -77.0187   24.7360  -81.0771 C.3       6 UNK        -0.1791 
     42 N         -76.6505   26.0263  -79.0331 N.am      6 UNK        -0.4762 
     43 C         -76.4833   27.1729  -78.3559 C.2       6 UNK         0.5007 
     44 O         -75.9556   28.1732  -78.8422 O.2       6 UNK        -0.5032 
     45 CA        -76.9428   27.2179  -76.8819 C.3       5 UNK         0.0783 
     46 C46       -78.2717   27.9969  -76.7446 C.3       11 UNK        -0.0857 
     47 S47       -78.6743   28.3249  -74.9995 S.3       11 UNK        -0.2512 
     48 C48       -78.2174   30.0801  -74.8361 C.3       11 UNK         0.0225 
     49 N         -77.0056   25.8941  -76.2437 N.am      5 UNK        -0.4615 
     50 C         -75.9649   25.0638  -76.0772 C.2       4 UNK         0.5053 
     51 O         -74.8083   25.3616  -76.3719 O.2       4 UNK        -0.5105 
     52 CA        -76.2458   23.6433  -75.5537 C.3       4 UNK         0.0263 
     53 CB        -75.9396   23.5601  -74.0502 C.3       4 UNK        -0.1981 
     54 N         -77.6092   23.1639  -75.7969 N.am      4 UNK        -0.4224 
     55 C         -78.2284   23.1013  -76.9857 C.2       3 UNK         0.4895 
     56 O         -77.6783   23.3739  -78.0528 O.2       3 UNK        -0.5091 
     57 CA        -79.7226   22.7208  -76.9926 C.3       3 UNK         0.0250 
     58 CB        -79.9104   21.3080  -77.5688 C.3       3 UNK        -0.1996 
     59 N         -80.3967   22.7997  -75.6882 N.am      3 UNK        -0.4254 
     60 C         -80.5117   23.8942  -74.9201 C.2       2 UNK         0.5004 
     61 O         -80.0296   24.9865  -75.2292 O.2       2 UNK        -0.5226 
     62 CA        -81.2580   23.7178  -73.5815 C.3       2 UNK         0.0269 
     63 CB        -81.0058   22.3409  -72.9326 C.3       2 UNK        -0.1926 
     64 N         -80.8710   24.7509  -72.6207 N.am      2 UNK        -0.4687 
     65 C         -81.4622   25.9409  -72.4702 C.2       1 UNK         0.5165 
     66 O         -82.4527   26.2930  -73.1152 O.2       1 UNK        -0.5079 
     67 H67       -76.7217   26.5446  -73.0236 H         1 UNK         0.0900 
     68 H68       -76.2897   26.8771  -71.3438 H         1 UNK         0.0900 
     69 H69       -77.1201   28.1022  -72.3057 H         1 UNK         0.0900 
     70 H70       -79.3500   28.1787  -72.1548 H         1 UNK         0.2959 
     71 H71       -80.8050   26.3182  -70.4803 H         1 UNK         0.1079 
     72 H72       -81.8340   28.7210  -72.0666 H         1 UNK         0.0837 
     73 H73       -82.7410   27.8191  -70.8894 H         1 UNK         0.0837 
     74 H74       -81.7544   30.9872  -71.2809 H         1 UNK         0.0685 
     75 H75       -80.9548   31.5768  -69.8508 H         1 UNK         0.0685 
     76 H76       -80.3980   30.1339  -73.2149 H         1 UNK         0.1434 
     77 H77       -76.2196   31.0899  -73.2576 H         1 UNK         0.1329 
     78 H78       -78.5117   31.6772  -69.6838 H         1 UNK         0.1335 
     79 H79       -75.2594   32.3300  -71.4324 H         1 UNK         0.0680 
     80 H80       -76.3075   32.9612  -70.1944 H         1 UNK         0.0680 
     81 H81       -75.4617   29.3389  -71.2453 H         1 UNK         0.1032 
     82 H82       -74.5661   28.6552  -69.9418 H         1 UNK         0.1032 
     83 H83       -73.2519   30.9977  -71.3399 H         1 UNK         0.0461 
     84 H84       -71.1937   29.3285  -68.6996 H         1 UNK         0.3453 
     85 H85       -72.8259   29.9524  -68.7079 H         1 UNK         0.3453 
     86 H86       -73.3517   30.2511  -73.3647 H         1 UNK         0.2984 
     87 H87       -74.7376   27.6173  -74.7115 H         1 UNK         0.0554 
     88 H88       -73.9953   29.1689  -76.5249 H         1 UNK         0.0847 
     89 H89       -72.8289   29.9069  -75.4391 H         1 UNK         0.0847 
     90 H90       -74.5588   30.0513  -75.1219 H         1 UNK         0.0847 
     91 H91       -73.2985   26.2746  -75.6551 H         1 UNK         0.3141 
     92 H92       -69.9092   26.3832  -76.5044 H         1 UNK         0.0743 
     93 H93       -71.0187   24.5660  -74.2964 H         1 UNK         0.0784 
     94 H94       -69.6024   24.2356  -75.2972 H         1 UNK         0.0784 
     95 H95       -69.5854   25.5738  -74.1622 H         1 UNK         0.0784 
     96 H96       -71.7945   24.2449  -76.6259 H         1 UNK         0.3213 
     97 H97       -72.1746   24.5576  -79.9431 H         1 UNK         0.0855 
     98 H98       -73.3201   23.1148  -77.4812 H         1 UNK         0.0814 
     99 H99       -71.7717   22.7601  -78.2558 H         1 UNK         0.0814 
    100 H100      -73.2690   22.4879  -79.1205 H         1 UNK         0.0814 
    101 H101      -74.5969   25.2741  -78.3525 H         1 UNK         0.3105 
    102 H102      -76.1846   26.7037  -80.9605 H         1 UNK         0.0547 
    103 H103      -76.7174   24.5970  -82.1162 H         1 UNK         0.0837 
    104 H104      -76.9564   23.7624  -80.5899 H         1 UNK         0.0837 
    105 H105      -78.0645   25.0430  -81.0826 H         1 UNK         0.0837 
    106 H106      -77.0786   25.2303  -78.5677 H         1 UNK         0.3020 
    107 H107      -76.1762   27.7916  -76.3640 H         1 UNK         0.1245 
    108 H108      -79.0940   27.4307  -77.1861 H         1 UNK         0.0781 
    109 H109      -78.2314   28.9464  -77.2827 H         1 UNK         0.0781 
    110 H110      -78.8860   30.6883  -75.4470 H         1 UNK         0.0836 
    111 H111      -77.2114   30.2258  -75.2322 H         1 UNK         0.0836 
    112 H112      -77.9272   25.5865  -75.9541 H         1 UNK         0.3022 
    113 H113      -75.5669   22.9705  -76.0812 H         1 UNK         0.0747 
    114 H114      -75.9801   22.5305  -73.6944 H         1 UNK         0.0793 
    115 H115      -74.9394   23.9371  -73.8302 H         1 UNK         0.0793 
    116 H116      -76.6463   24.1450  -73.4606 H         1 UNK         0.0793 
    117 H117      -78.1520   22.9266  -74.9803 H         1 UNK         0.3047 
    118 H118      -80.2213   23.4296  -77.6568 H         1 UNK         0.0822 
    119 H119      -80.9661   21.0629  -77.6867 H         1 UNK         0.0807 
    120 H120      -79.4566   20.5484  -76.9309 H         1 UNK         0.0807 
    121 H121      -79.4500   21.2226  -78.5544 H         1 UNK         0.0807 
    122 H122      -80.8136   21.9426  -75.3543 H         1 UNK         0.2946 
    123 H123      -82.3256   23.8057  -73.7964 H         1 UNK         0.1144 
    124 H124      -81.4149   21.5281  -73.5336 H         1 UNK         0.0793 
    125 H125      -81.4856   22.2745  -71.9557 H         1 UNK         0.0793 
    126 H126      -79.9414   22.1486  -72.7900 H         1 UNK         0.0793 
    127 H127      -80.0094   24.5999  -72.1034 H         1 UNK         0.2896 
@<TRIPOS>BOND
     1    1    2 1    
     2    1   67 1    
     3    1   68 1    
     4    1   69 1    
     5    2    3 2    
     6    2    4 am   BACKBONE|DICT|INTERRES
     7    4    5 1    
     8    4   70 1    
     9    5    6 1    
    10    5   65 1    
    11    5   71 1    
    12    6    7 1    
    13    6   72 1    
    14    6   73 1    
    15    7    8 1    
    16    8    9 1    
    17    8   74 1    
    18    8   75 1    
    19    9   10 ar   
    20    9   14 ar   
    21   10   11 ar   
    22   10   76 1    
    23   11   12 ar   
    24   11   48 1    
    25   12   13 ar   
    26   12   77 1    
    27   13   14 ar   
    28   13   15 1    
    29   14   78 1    
    30   15   16 1    
    31   15   79 1    
    32   15   80 1    
    33   16   17 1    
    34   17   18 1    
    35   17   81 1    
    36   17   82 1    
    37   18   19 1    
    38   18   22 1    
    39   18   83 1    
    40   19   20 am   BACKBONE|DICT|INTERRES
    41   19   21 2    
    42   20   84 1    
    43   20   85 1    
    44   22   23 am   BACKBONE|DICT|INTERRES
    45   22   86 1    
    46   23   24 2    
    47   23   25 1    
    48   25   26 1    
    49   25   27 1    
    50   25   87 1    
    51   26   88 1    
    52   26   89 1    
    53   26   90 1    
    54   27   28 am   BACKBONE|DICT|INTERRES
    55   27   91 1    
    56   28   29 2    
    57   28   30 1    
    58   30   31 1    
    59   30   32 1    
    60   30   92 1    
    61   31   93 1    
    62   31   94 1    
    63   31   95 1    
    64   32   33 am   BACKBONE|DICT|INTERRES
    65   32   96 1    
    66   33   34 2    
    67   33   35 1    
    68   35   36 1    
    69   35   37 1    
    70   35   97 1    
    71   36   98 1    
    72   36   99 1    
    73   36  100 1    
    74   37   38 am   BACKBONE|DICT|INTERRES
    75   37  101 1    
    76   38   39 2    
    77   38   40 1    
    78   40   41 1    
    79   40   42 1    
    80   40  102 1    
    81   41  103 1    
    82   41  104 1    
    83   41  105 1    
    84   42   43 am   BACKBONE|DICT|INTERRES
    85   42  106 1    
    86   43   44 2    
    87   43   45 1    
    88   45   46 1    
    89   45   49 1    
    90   45  107 1    
    91   46   47 1    
    92   46  108 1    
    93   46  109 1    
    94   47   48 1    
    95   48  110 1    
    96   48  111 1    
    97   49   50 am   BACKBONE|DICT|INTERRES
    98   49  112 1    
    99   50   51 2    
   100   50   52 1    
   101   52   53 1    
   102   52   54 1    
   103   52  113 1    
   104   53  114 1    
   105   53  115 1    
   106   53  116 1    
   107   54   55 am   BACKBONE|DICT|INTERRES
   108   54  117 1    
   109   55   56 2    
   110   55   57 1    
   111   57   58 1    
   112   57   59 1    
   113   57  118 1    
   114   58  119 1    
   115   58  120 1    
   116   58  121 1    
   117   59   60 am   BACKBONE|DICT|INTERRES
   118   59  122 1    
   119   60   61 2    
   120   60   62 1    
   121   62   63 1    
   122   62   64 1    
   123   62  123 1    
   124   63  124 1    
   125   63  125 1    
   126   63  126 1    
   127   64   65 am   BACKBONE|DICT|INTERRES
   128   64  127 1    
   129   65   66 2    
@<TRIPOS>SUBSTRUCTURE
     1 UNK         1 GROUP             0       ****    0 ROOT    
