@<TRIPOS>MOLECULE
3R135
127   129    1
SMALL
USER_CHARGES


@<TRIPOS>ATOM
      1 CA        -83.4846   29.8622  -73.4660 C.3       0 UNK        -0.1998 
      2 C         -82.2903   28.9382  -73.6442 C.2       0 UNK         0.4909 
      3 O         -81.4947   29.1318  -74.5622 O.2       0 UNK        -0.5240 
      4 N         -82.1649   27.9170  -72.7883 N.am      1 UNK        -0.4739 
      5 CA        -81.0513   26.9555  -72.7444 C.3       1 UNK         0.0864 
      6 C6        -80.8568   26.3762  -71.3169 C.3       11 UNK        -0.0881 
      7 S7        -80.6390   27.6730  -70.0494 S.3       11 UNK        -0.2682 
      8 C8        -78.8411   27.6063  -69.7305 C.3       11 UNK         0.0289 
      9 C9        -77.9521   28.0817  -70.8813 C.ar      11 UNK        -0.0687 
     10 C10       -78.3698   29.0585  -71.7955 C.ar      11 UNK        -0.0823 
     11 C11       -77.5303   29.4813  -72.8313 C.ar      11 UNK        -0.0830 
     12 C12       -76.2315   28.9689  -72.9049 C.ar      11 UNK        -0.1021 
     13 C13       -75.7969   27.9968  -72.0008 C.ar      11 UNK        -0.0753 
     14 C14       -76.6634   27.5520  -70.9994 C.ar      11 UNK        -0.0933 
     15 C15       -74.3969   27.4138  -72.1246 C.3       11 UNK         0.0166 
     16 S16       -73.3097   27.8730  -70.7396 S.3       11 UNK        -0.2615 
     17 C17       -73.2401   29.6966  -70.8730 C.3       11 UNK        -0.0865 
     18 CA        -71.9421   30.2541  -71.5187 C.3       10 UNK         0.0862 
     19 C         -70.6455   29.9545  -70.7114 C.2       10 UNK         0.5551 
     20 N         -69.5173   29.6685  -71.3521 N.am      10 UNK        -0.7319 
     21 O         -70.6501   30.0111  -69.4839 O.2       10 UNK        -0.5018 
     22 N         -71.8403   29.9346  -72.9530 N.am      10 UNK        -0.4509 
     23 C         -72.3343   30.6903  -73.9424 C.2       10 UNK         0.4899 
     24 O         -73.0071   31.7045  -73.7557 O.2       10 UNK        -0.4839 
     25 CA        -72.0018   30.2815  -75.3899 C.3       9 UNK         0.0222 
     26 CB        -70.8943   31.1870  -75.9549 C.3       9 UNK        -0.1966 
     27 N         -71.5879   28.8814  -75.5253 N.am      9 UNK        -0.4218 
     28 C         -72.4414   27.8536  -75.6037 C.2       9 UNK         0.5020 
     29 O         -73.6643   27.9781  -75.5769 O.2       9 UNK        -0.5274 
     30 CA        -71.8142   26.4592  -75.6922 C.3       8 UNK         0.0270 
     31 CB        -71.3884   25.9617  -74.2986 C.3       8 UNK        -0.1976 
     32 N         -72.7645   25.5085  -76.2697 N.am      8 UNK        -0.4313 
     33 C         -72.4277   24.5098  -77.0950 C.2       8 UNK         0.5041 
     34 O         -71.2772   24.3084  -77.4889 O.2       8 UNK        -0.5577 
     35 CA        -73.5396   23.5495  -77.5475 C.3       7 UNK         0.0284 
     36 CB        -73.7983   22.4856  -76.4681 C.3       7 UNK        -0.1958 
     37 N         -74.7964   24.2135  -77.8969 N.am      7 UNK        -0.4454 
     38 C         -74.9862   24.9641  -78.9921 C.2       7 UNK         0.5089 
     39 O         -74.1085   25.2017  -79.8224 O.2       7 UNK        -0.5125 
     40 CA        -76.3982   25.5424  -79.2030 C.3       6 UNK         0.0408 
     41 CB        -77.3352   24.4941  -79.8232 C.3       6 UNK        -0.1791 
     42 N         -76.9711   26.0393  -77.9524 N.am      6 UNK        -0.4762 
     43 C         -76.5705   27.1625  -77.3392 C.2       6 UNK         0.5007 
     44 O         -75.8165   27.9814  -77.8653 O.2       6 UNK        -0.5032 
     45 CA        -77.0696   27.3951  -75.8975 C.3       5 UNK         0.0783 
     46 C46       -78.2235   28.4309  -75.8188 C.3       11 UNK        -0.0857 
     47 S47       -77.5879   30.1274  -75.5850 S.3       11 UNK        -0.2512 
     48 C48       -78.0412   30.4988  -73.8508 C.3       11 UNK         0.0225 
     49 N         -77.4169   26.1404  -75.2249 N.am      5 UNK        -0.4615 
     50 C         -76.5221   25.2764  -74.7256 C.2       4 UNK         0.5053 
     51 O         -75.3036   25.4268  -74.7915 O.2       4 UNK        -0.5105 
     52 CA        -77.0852   24.0023  -74.0779 C.3       4 UNK         0.0263 
     53 CB        -77.4877   24.2788  -72.6218 C.3       4 UNK        -0.1981 
     54 N         -78.2240   23.4573  -74.8231 N.am      4 UNK        -0.4224 
     55 C         -78.1148   22.9266  -76.0514 C.2       3 UNK         0.4895 
     56 O         -77.0456   22.8137  -76.6489 O.2       3 UNK        -0.5091 
     57 CA        -79.4076   22.4928  -76.7634 C.3       3 UNK         0.0250 
     58 CB        -79.7269   21.0233  -76.4476 C.3       3 UNK        -0.1996 
     59 N         -80.5709   23.3240  -76.4467 N.am      3 UNK        -0.4254 
     60 C         -80.6537   24.6489  -76.6326 C.2       2 UNK         0.5004 
     61 O         -79.7439   25.3332  -77.1029 O.2       2 UNK        -0.5226 
     62 CA        -81.9434   25.3463  -76.1676 C.3       2 UNK         0.0269 
     63 CB        -83.1208   24.3848  -75.8856 C.3       2 UNK        -0.1926 
     64 N         -81.6948   26.2005  -75.0018 N.am      2 UNK        -0.4687 
     65 C         -81.1666   25.8482  -73.8194 C.2       1 UNK         0.5165 
     66 O         -80.7749   24.7064  -73.5672 O.2       1 UNK        -0.5079 
     67 H67       -84.1061   29.8491  -74.3609 H         1 UNK         0.0900 
     68 H68       -83.1448   30.8844  -73.3015 H         1 UNK         0.0900 
     69 H69       -84.1032   29.5697  -72.6177 H         1 UNK         0.0900 
     70 H70       -82.8607   27.7955  -72.0659 H         1 UNK         0.2959 
     71 H71       -80.1384   27.4902  -73.0042 H         1 UNK         0.1079 
     72 H72       -81.7215   25.7725  -71.0351 H         1 UNK         0.0837 
     73 H73       -80.0002   25.7030  -71.2769 H         1 UNK         0.0837 
     74 H74       -78.6268   28.2278  -68.8604 H         1 UNK         0.0685 
     75 H75       -78.5794   26.5850  -69.4488 H         1 UNK         0.0685 
     76 H76       -79.3597   29.4850  -71.7120 H         1 UNK         0.1434 
     77 H77       -75.5615   29.3114  -73.6823 H         1 UNK         0.1329 
     78 H78       -76.3214   26.8024  -70.2988 H         1 UNK         0.1335 
     79 H79       -74.4654   26.3265  -72.1788 H         1 UNK         0.0680 
     80 H80       -73.9279   27.7357  -73.0517 H         1 UNK         0.0680 
     81 H81       -74.1056   30.0662  -71.4223 H         1 UNK         0.1032 
     82 H82       -73.3540   30.1038  -69.8669 H         1 UNK         0.1032 
     83 H83       -72.0144   31.3407  -71.4413 H         1 UNK         0.0461 
     84 H84       -69.4655   29.6910  -72.3567 H         1 UNK         0.3453 
     85 H85       -68.6853   29.4856  -70.8130 H         1 UNK         0.3453 
     86 H86       -71.3254   29.0980  -73.1805 H         1 UNK         0.2984 
     87 H87       -72.9019   30.4421  -75.9880 H         1 UNK         0.0554 
     88 H88       -69.9602   31.0806  -75.4020 H         1 UNK         0.0847 
     89 H89       -71.1844   32.2375  -75.9025 H         1 UNK         0.0847 
     90 H90       -70.6932   30.9624  -77.0026 H         1 UNK         0.0847 
     91 H91       -70.5948   28.6995  -75.5644 H         1 UNK         0.3141 
     92 H92       -70.9320   26.5364  -76.3314 H         1 UNK         0.0743 
     93 H93       -70.6859   26.6487  -73.8259 H         1 UNK         0.0784 
     94 H94       -72.2455   25.8576  -73.6319 H         1 UNK         0.0784 
     95 H95       -70.8967   24.9907  -74.3602 H         1 UNK         0.0784 
     96 H96       -73.7324   25.6291  -75.9740 H         1 UNK         0.3213 
     97 H97       -73.1800   23.0344  -78.4411 H         1 UNK         0.0855 
     98 H98       -74.2054   22.9258  -75.5572 H         1 UNK         0.0814 
     99 H99       -72.8760   21.9697  -76.1978 H         1 UNK         0.0814 
    100 H100      -74.5011   21.7290  -76.8174 H         1 UNK         0.0814 
    101 H101      -75.5947   24.0094  -77.3035 H         1 UNK         0.3105 
    102 H102      -76.3215   26.3773  -79.9029 H         1 UNK         0.0547 
    103 H103      -76.9628   24.1698  -80.7957 H         1 UNK         0.0837 
    104 H104      -77.4232   23.6057  -79.1985 H         1 UNK         0.0837 
    105 H105      -78.3366   24.8968  -79.9762 H         1 UNK         0.0837 
    106 H106      -77.6776   25.4691  -77.5009 H         1 UNK         0.3020 
    107 H107      -76.2101   27.7967  -75.3601 H         1 UNK         0.1245 
    108 H108      -78.8888   28.2045  -74.9853 H         1 UNK         0.0781 
    109 H109      -78.8582   28.3999  -76.7067 H         1 UNK         0.0781 
    110 H110      -79.1284   30.5780  -73.7972 H         1 UNK         0.0836 
    111 H111      -77.6478   31.4818  -73.5893 H         1 UNK         0.0836 
    112 H112      -78.3951   25.8910  -75.2157 H         1 UNK         0.3022 
    113 H113      -76.2949   23.2485  -74.0737 H         1 UNK         0.0747 
    114 H114      -77.9231   23.3980  -72.1500 H         1 UNK         0.0793 
    115 H115      -76.6190   24.5707  -72.0302 H         1 UNK         0.0793 
    116 H116      -78.2090   25.0920  -72.5548 H         1 UNK         0.0793 
    117 H117      -79.1436   23.5600  -74.4072 H         1 UNK         0.3047 
    118 H118      -79.2315   22.5799  -77.8373 H         1 UNK         0.0822 
    119 H119      -80.5820   20.6692  -77.0239 H         1 UNK         0.0807 
    120 H120      -79.9490   20.8759  -75.3898 H         1 UNK         0.0807 
    121 H121      -78.8824   20.3787  -76.6963 H         1 UNK         0.0807 
    122 H122      -81.3577   22.8573  -76.0193 H         1 UNK         0.2946 
    123 H123      -82.2400   26.0049  -76.9857 H         1 UNK         0.1144 
    124 H124      -84.0300   24.9426  -75.6607 H         1 UNK         0.0793 
    125 H125      -82.9277   23.7248  -75.0390 H         1 UNK         0.0793 
    126 H126      -83.3392   23.7614  -76.7539 H         1 UNK         0.0793 
    127 H127      -81.8993   27.1867  -75.1248 H         1 UNK         0.2896 
@<TRIPOS>BOND
     1    1    2 1    
     2    1   67 1    
     3    1   68 1    
     4    1   69 1    
     5    2    3 2    
     6    2    4 am   BACKBONE|DICT|INTERRES
     7    4    5 1    
     8    4   70 1    
     9    5    6 1    
    10    5   65 1    
    11    5   71 1    
    12    6    7 1    
    13    6   72 1    
    14    6   73 1    
    15    7    8 1    
    16    8    9 1    
    17    8   74 1    
    18    8   75 1    
    19    9   10 ar   
    20    9   14 ar   
    21   10   11 ar   
    22   10   76 1    
    23   11   12 ar   
    24   11   48 1    
    25   12   13 ar   
    26   12   77 1    
    27   13   14 ar   
    28   13   15 1    
    29   14   78 1    
    30   15   16 1    
    31   15   79 1    
    32   15   80 1    
    33   16   17 1    
    34   17   18 1    
    35   17   81 1    
    36   17   82 1    
    37   18   19 1    
    38   18   22 1    
    39   18   83 1    
    40   19   20 am   BACKBONE|DICT|INTERRES
    41   19   21 2    
    42   20   84 1    
    43   20   85 1    
    44   22   23 am   BACKBONE|DICT|INTERRES
    45   22   86 1    
    46   23   24 2    
    47   23   25 1    
    48   25   26 1    
    49   25   27 1    
    50   25   87 1    
    51   26   88 1    
    52   26   89 1    
    53   26   90 1    
    54   27   28 am   BACKBONE|DICT|INTERRES
    55   27   91 1    
    56   28   29 2    
    57   28   30 1    
    58   30   31 1    
    59   30   32 1    
    60   30   92 1    
    61   31   93 1    
    62   31   94 1    
    63   31   95 1    
    64   32   33 am   BACKBONE|DICT|INTERRES
    65   32   96 1    
    66   33   34 2    
    67   33   35 1    
    68   35   36 1    
    69   35   37 1    
    70   35   97 1    
    71   36   98 1    
    72   36   99 1    
    73   36  100 1    
    74   37   38 am   BACKBONE|DICT|INTERRES
    75   37  101 1    
    76   38   39 2    
    77   38   40 1    
    78   40   41 1    
    79   40   42 1    
    80   40  102 1    
    81   41  103 1    
    82   41  104 1    
    83   41  105 1    
    84   42   43 am   BACKBONE|DICT|INTERRES
    85   42  106 1    
    86   43   44 2    
    87   43   45 1    
    88   45   46 1    
    89   45   49 1    
    90   45  107 1    
    91   46   47 1    
    92   46  108 1    
    93   46  109 1    
    94   47   48 1    
    95   48  110 1    
    96   48  111 1    
    97   49   50 am   BACKBONE|DICT|INTERRES
    98   49  112 1    
    99   50   51 2    
   100   50   52 1    
   101   52   53 1    
   102   52   54 1    
   103   52  113 1    
   104   53  114 1    
   105   53  115 1    
   106   53  116 1    
   107   54   55 am   BACKBONE|DICT|INTERRES
   108   54  117 1    
   109   55   56 2    
   110   55   57 1    
   111   57   58 1    
   112   57   59 1    
   113   57  118 1    
   114   58  119 1    
   115   58  120 1    
   116   58  121 1    
   117   59   60 am   BACKBONE|DICT|INTERRES
   118   59  122 1    
   119   60   61 2    
   120   60   62 1    
   121   62   63 1    
   122   62   64 1    
   123   62  123 1    
   124   63  124 1    
   125   63  125 1    
   126   63  126 1    
   127   64   65 am   BACKBONE|DICT|INTERRES
   128   64  127 1    
   129   65   66 2    
@<TRIPOS>SUBSTRUCTURE
     1 UNK         1 GROUP             0       ****    0 ROOT    
