@<TRIPOS>MOLECULE
3R135
127   129    1
SMALL
USER_CHARGES


@<TRIPOS>ATOM
      1 CA        -85.6704   30.4036  -75.7556 C.3       0 UNK        -0.1998 
      2 C         -84.2622   29.8888  -76.0136 C.2       0 UNK         0.4909 
      3 O         -83.7641   30.0075  -77.1333 O.2       0 UNK        -0.5240 
      4 N         -83.6167   29.3248  -74.9835 N.am      1 UNK        -0.4739 
      5 CA        -82.2742   28.7352  -75.0504 C.3       1 UNK         0.0864 
      6 C6        -81.7201   28.4791  -73.6244 C.3       11 UNK        -0.0881 
      7 S7        -80.0102   27.8511  -73.6110 S.3       11 UNK        -0.2682 
      8 C8        -79.3026   28.6785  -72.1582 C.3       11 UNK         0.0289 
      9 C9        -77.9291   28.1006  -71.8642 C.ar      11 UNK        -0.0687 
     10 C10       -77.8184   26.9100  -71.1411 C.ar      11 UNK        -0.0823 
     11 C11       -76.5688   26.3238  -70.9264 C.ar      11 UNK        -0.0830 
     12 C12       -75.4226   26.9453  -71.4269 C.ar      11 UNK        -0.1021 
     13 C13       -75.5204   28.1381  -72.1494 C.ar      11 UNK        -0.0753 
     14 C14       -76.7759   28.7180  -72.3580 C.ar      11 UNK        -0.0933 
     15 C15       -74.2762   28.7465  -72.7742 C.3       11 UNK         0.0166 
     16 S16       -73.1042   29.3613  -71.5219 S.3       11 UNK        -0.2615 
     17 C17       -73.1397   31.1636  -71.8307 C.3       11 UNK        -0.0865 
     18 CA        -72.0504   31.6416  -72.8301 C.3       10 UNK         0.0862 
     19 C         -70.6218   31.6374  -72.2062 C.2       10 UNK         0.5551 
     20 N         -69.6495   30.9142  -72.7513 N.am      10 UNK        -0.7319 
     21 O         -70.3886   32.3212  -71.2123 O.2       10 UNK        -0.5018 
     22 N         -72.1637   30.9300  -74.1097 N.am      10 UNK        -0.4509 
     23 C         -71.7310   31.3706  -75.2946 C.2       10 UNK         0.4899 
     24 O         -71.2656   32.4964  -75.4784 O.2       10 UNK        -0.4839 
     25 CA        -71.8453   30.3754  -76.4677 C.3       9 UNK         0.0222 
     26 CB        -70.8603   30.6942  -77.6121 C.3       9 UNK        -0.1966 
     27 N         -71.7314   28.9624  -76.0713 N.am      9 UNK        -0.4218 
     28 C         -70.6886   28.3710  -75.4603 C.2       9 UNK         0.5020 
     29 O         -69.7030   28.9886  -75.0539 O.2       9 UNK        -0.5274 
     30 CA        -70.7395   26.8431  -75.2431 C.3       8 UNK         0.0270 
     31 CB        -70.8421   26.5066  -73.7458 C.3       8 UNK        -0.1976 
     32 N         -71.8251   26.1746  -75.9679 N.am      8 UNK        -0.4313 
     33 C         -71.8560   26.0028  -77.2997 C.2       8 UNK         0.5041 
     34 O         -70.9132   26.2862  -78.0396 O.2       8 UNK        -0.5577 
     35 CA        -73.1553   25.4610  -77.9322 C.3       7 UNK         0.0284 
     36 CB        -72.9911   23.9791  -78.3060 C.3       7 UNK        -0.1958 
     37 N         -74.3519   25.6078  -77.0985 N.am      7 UNK        -0.4454 
     38 C         -74.8377   26.7555  -76.6008 C.2       7 UNK         0.5089 
     39 O         -74.3610   27.8642  -76.8469 O.2       7 UNK        -0.5125 
     40 CA        -76.0039   26.6408  -75.6009 C.3       6 UNK         0.0408 
     41 CB        -77.3342   26.8975  -76.3216 C.3       6 UNK        -0.1791 
     42 N         -76.0663   25.3546  -74.8901 N.am      6 UNK        -0.4762 
     43 C         -75.0682   24.8098  -74.1696 C.2       6 UNK         0.5007 
     44 O         -73.9834   25.3678  -73.9947 O.2       6 UNK        -0.5032 
     45 CA        -75.2480   23.3732  -73.6308 C.3       5 UNK         0.0783 
     46 C46       -75.2254   23.2958  -72.0808 C.3       11 UNK        -0.0857 
     47 S47       -76.8344   23.5965  -71.2665 S.3       11 UNK        -0.2512 
     48 C48       -76.4702   25.0073  -70.1755 C.3       11 UNK         0.0225 
     49 N         -76.3858   22.6557  -74.2145 N.am      5 UNK        -0.4615 
     50 C         -76.4855   22.2647  -75.4915 C.2       4 UNK         0.5053 
     51 O         -75.5970   22.4359  -76.3268 O.2       4 UNK        -0.5105 
     52 CA        -77.8086   21.6012  -75.9156 C.3       4 UNK         0.0263 
     53 CB        -77.6780   20.0705  -75.8669 C.3       4 UNK        -0.1981 
     54 N         -78.9712   22.0153  -75.1179 N.am      4 UNK        -0.4224 
     55 C         -79.4647   23.2612  -75.0790 C.2       3 UNK         0.4895 
     56 O         -78.9577   24.2147  -75.6711 O.2       3 UNK        -0.5091 
     57 CA        -80.6990   23.4850  -74.1892 C.3       3 UNK         0.0250 
     58 CB        -80.2737   24.0122  -72.8092 C.3       3 UNK        -0.1996 
     59 N         -81.6479   24.4255  -74.7904 N.am      3 UNK        -0.4254 
     60 C         -82.3866   24.1758  -75.8819 C.2       2 UNK         0.5004 
     61 O         -82.3538   23.1048  -76.4906 O.2       2 UNK        -0.5226 
     62 CA        -83.3574   25.2733  -76.3663 C.3       2 UNK         0.0269 
     63 CB        -84.8165   24.8044  -76.2296 C.3       2 UNK        -0.1926 
     64 N         -83.2126   26.5530  -75.6646 N.am      2 UNK        -0.4687 
     65 C         -82.2619   27.4610  -75.9261 C.2       1 UNK         0.5165 
     66 O         -81.4185   27.3297  -76.8141 O.2       1 UNK        -0.5079 
     67 H67       -85.7271   31.4689  -75.9781 H         1 UNK         0.0900 
     68 H68       -86.3827   29.8833  -76.3954 H         1 UNK         0.0900 
     69 H69       -85.9755   30.2575  -74.7195 H         1 UNK         0.0900 
     70 H70       -84.0791   29.2696  -74.0869 H         1 UNK         0.2959 
     71 H71       -81.6206   29.4628  -75.5376 H         1 UNK         0.1079 
     72 H72       -82.3492   27.7712  -73.0817 H         1 UNK         0.0837 
     73 H73       -81.7520   29.4086  -73.0533 H         1 UNK         0.0837 
     74 H74       -79.9589   28.5387  -71.2978 H         1 UNK         0.0685 
     75 H75       -79.2411   29.7527  -72.3393 H         1 UNK         0.0685 
     76 H76       -78.7107   26.4205  -70.7749 H         1 UNK         0.1434 
     77 H77       -74.4531   26.4875  -71.2847 H         1 UNK         0.1329 
     78 H78       -76.8620   29.6269  -72.9375 H         1 UNK         0.1335 
     79 H79       -74.5498   29.5392  -73.4715 H         1 UNK         0.0680 
     80 H80       -73.7816   27.9850  -73.3761 H         1 UNK         0.0680 
     81 H81       -73.0342   31.6790  -70.8741 H         1 UNK         0.1032 
     82 H82       -74.1279   31.4483  -72.1951 H         1 UNK         0.1032 
     83 H83       -72.2619   32.6930  -73.0347 H         1 UNK         0.0461 
     84 H84       -68.7329   30.9327  -72.3340 H         1 UNK         0.3453 
     85 H85       -69.8138   30.3442  -73.5742 H         1 UNK         0.3453 
     86 H86       -72.4889   29.9778  -74.0467 H         1 UNK         0.2984 
     87 H87       -72.8555   30.4931  -76.8621 H         1 UNK         0.0554 
     88 H88       -71.0330   31.6936  -78.0133 H         1 UNK         0.0847 
     89 H89       -70.9718   29.9919  -78.4382 H         1 UNK         0.0847 
     90 H90       -69.8238   30.6536  -77.2753 H         1 UNK         0.0847 
     91 H91       -72.5231   28.3835  -76.3398 H         1 UNK         0.3141 
     92 H92       -69.7932   26.4409  -75.6108 H         1 UNK         0.0743 
     93 H93       -70.0116   26.9422  -73.1886 H         1 UNK         0.0784 
     94 H94       -71.7619   26.8871  -73.3038 H         1 UNK         0.0784 
     95 H95       -70.8136   25.4298  -73.5785 H         1 UNK         0.0784 
     96 H96       -72.6318   25.8959  -75.4160 H         1 UNK         0.3213 
     97 H97       -73.3266   26.0312  -78.8476 H         1 UNK         0.0855 
     98 H98       -72.8497   23.3544  -77.4229 H         1 UNK         0.0814 
     99 H99       -72.1253   23.8312  -78.9533 H         1 UNK         0.0814 
    100 H100      -73.8629   23.6051  -78.8433 H         1 UNK         0.0814 
    101 H101      -74.8144   24.7500  -76.8252 H         1 UNK         0.3105 
    102 H102      -75.8693   27.4207  -74.8522 H         1 UNK         0.0547 
    103 H103      -77.5247   26.1530  -77.0956 H         1 UNK         0.0837 
    104 H104      -77.3392   27.8775  -76.8002 H         1 UNK         0.0837 
    105 H105      -78.1726   26.8736  -75.6274 H         1 UNK         0.0837 
    106 H106      -76.9270   24.8299  -74.9977 H         1 UNK         0.3020 
    107 H107      -74.3524   22.8493  -73.9738 H         1 UNK         0.1245 
    108 H108      -74.4612   23.9563  -71.6672 H         1 UNK         0.0781 
    109 H109      -74.9158   22.2915  -71.7876 H         1 UNK         0.0781 
    110 H110      -75.4870   24.8885  -69.7176 H         1 UNK         0.0836 
    111 H111      -77.1866   25.0062  -69.3526 H         1 UNK         0.0836 
    112 H112      -77.1640   22.4927  -73.5921 H         1 UNK         0.3022 
    113 H113      -77.9978   21.8949  -76.9503 H         1 UNK         0.0747 
    114 H114      -78.5717   19.5825  -76.2564 H         1 UNK         0.0793 
    115 H115      -76.8367   19.7312  -76.4733 H         1 UNK         0.0793 
    116 H116      -77.5128   19.7106  -74.8505 H         1 UNK         0.0793 
    117 H117      -79.4377   21.2901  -74.5916 H         1 UNK         0.3047 
    118 H118      -81.2166   22.5330  -74.0528 H         1 UNK         0.0822 
    119 H119      -81.1358   24.2262  -72.1775 H         1 UNK         0.0807 
    120 H120      -79.6800   24.9240  -72.8895 H         1 UNK         0.0807 
    121 H121      -79.6661   23.2753  -72.2835 H         1 UNK         0.0807 
    122 H122      -81.6964   25.3464  -74.3811 H         1 UNK         0.2946 
    123 H123      -83.1496   25.4313  -77.4273 H         1 UNK         0.1144 
    124 H124      -85.5104   25.5438  -76.6302 H         1 UNK         0.0793 
    125 H125      -85.0853   24.6188  -75.1889 H         1 UNK         0.0793 
    126 H126      -84.9840   23.8771  -76.7793 H         1 UNK         0.0793 
    127 H127      -83.8794   26.7484  -74.9317 H         1 UNK         0.2896 
@<TRIPOS>BOND
     1    1    2 1    
     2    1   67 1    
     3    1   68 1    
     4    1   69 1    
     5    2    3 2    
     6    2    4 am   BACKBONE|DICT|INTERRES
     7    4    5 1    
     8    4   70 1    
     9    5    6 1    
    10    5   65 1    
    11    5   71 1    
    12    6    7 1    
    13    6   72 1    
    14    6   73 1    
    15    7    8 1    
    16    8    9 1    
    17    8   74 1    
    18    8   75 1    
    19    9   10 ar   
    20    9   14 ar   
    21   10   11 ar   
    22   10   76 1    
    23   11   12 ar   
    24   11   48 1    
    25   12   13 ar   
    26   12   77 1    
    27   13   14 ar   
    28   13   15 1    
    29   14   78 1    
    30   15   16 1    
    31   15   79 1    
    32   15   80 1    
    33   16   17 1    
    34   17   18 1    
    35   17   81 1    
    36   17   82 1    
    37   18   19 1    
    38   18   22 1    
    39   18   83 1    
    40   19   20 am   BACKBONE|DICT|INTERRES
    41   19   21 2    
    42   20   84 1    
    43   20   85 1    
    44   22   23 am   BACKBONE|DICT|INTERRES
    45   22   86 1    
    46   23   24 2    
    47   23   25 1    
    48   25   26 1    
    49   25   27 1    
    50   25   87 1    
    51   26   88 1    
    52   26   89 1    
    53   26   90 1    
    54   27   28 am   BACKBONE|DICT|INTERRES
    55   27   91 1    
    56   28   29 2    
    57   28   30 1    
    58   30   31 1    
    59   30   32 1    
    60   30   92 1    
    61   31   93 1    
    62   31   94 1    
    63   31   95 1    
    64   32   33 am   BACKBONE|DICT|INTERRES
    65   32   96 1    
    66   33   34 2    
    67   33   35 1    
    68   35   36 1    
    69   35   37 1    
    70   35   97 1    
    71   36   98 1    
    72   36   99 1    
    73   36  100 1    
    74   37   38 am   BACKBONE|DICT|INTERRES
    75   37  101 1    
    76   38   39 2    
    77   38   40 1    
    78   40   41 1    
    79   40   42 1    
    80   40  102 1    
    81   41  103 1    
    82   41  104 1    
    83   41  105 1    
    84   42   43 am   BACKBONE|DICT|INTERRES
    85   42  106 1    
    86   43   44 2    
    87   43   45 1    
    88   45   46 1    
    89   45   49 1    
    90   45  107 1    
    91   46   47 1    
    92   46  108 1    
    93   46  109 1    
    94   47   48 1    
    95   48  110 1    
    96   48  111 1    
    97   49   50 am   BACKBONE|DICT|INTERRES
    98   49  112 1    
    99   50   51 2    
   100   50   52 1    
   101   52   53 1    
   102   52   54 1    
   103   52  113 1    
   104   53  114 1    
   105   53  115 1    
   106   53  116 1    
   107   54   55 am   BACKBONE|DICT|INTERRES
   108   54  117 1    
   109   55   56 2    
   110   55   57 1    
   111   57   58 1    
   112   57   59 1    
   113   57  118 1    
   114   58  119 1    
   115   58  120 1    
   116   58  121 1    
   117   59   60 am   BACKBONE|DICT|INTERRES
   118   59  122 1    
   119   60   61 2    
   120   60   62 1    
   121   62   63 1    
   122   62   64 1    
   123   62  123 1    
   124   63  124 1    
   125   63  125 1    
   126   63  126 1    
   127   64   65 am   BACKBONE|DICT|INTERRES
   128   64  127 1    
   129   65   66 2    
@<TRIPOS>SUBSTRUCTURE
     1 UNK         1 GROUP             0       ****    0 ROOT    
