@<TRIPOS>MOLECULE
3R135
127   129    1
SMALL
USER_CHARGES


@<TRIPOS>ATOM
      1 CA        -78.0240   30.0908  -75.1030 C.3       0 UNK        -0.1998 
      2 C         -79.4698   29.6334  -74.9943 C.2       0 UNK         0.4909 
      3 O         -80.2968   30.0451  -75.8070 O.2       0 UNK        -0.5240 
      4 N         -79.7693   28.8002  -73.9872 N.am      1 UNK        -0.4739 
      5 CA        -81.0954   28.2753  -73.6357 C.3       1 UNK         0.0864 
      6 C6        -82.0936   29.3928  -73.1936 C.3       11 UNK        -0.0881 
      7 S7        -82.3400   29.4298  -71.3844 S.3       11 UNK        -0.2682 
      8 C8        -80.9482   30.4659  -70.8042 C.3       11 UNK         0.0289 
      9 C9        -79.5820   29.7987  -70.9529 C.ar      11 UNK        -0.0687 
     10 C10       -79.4021   28.4483  -70.6269 C.ar      11 UNK        -0.0823 
     11 C11       -78.1695   27.8214  -70.8273 C.ar      11 UNK        -0.0830 
     12 C12       -77.0964   28.5699  -71.3151 C.ar      11 UNK        -0.1021 
     13 C13       -77.2455   29.9279  -71.6053 C.ar      11 UNK        -0.0753 
     14 C14       -78.4911   30.5380  -71.4259 C.ar      11 UNK        -0.0933 
     15 C15       -76.0519   30.7134  -72.1260 C.3       11 UNK         0.0166 
     16 S16       -74.7610   30.8338  -70.8537 S.3       11 UNK        -0.2615 
     17 C17       -73.2706   31.1354  -71.8666 C.3       11 UNK        -0.0865 
     18 CA        -72.6080   29.8824  -72.5224 C.3       10 UNK         0.0862 
     19 C         -72.5081   28.6273  -71.6090 C.2       10 UNK         0.5551 
     20 N         -73.0337   27.4698  -71.9976 N.am      10 UNK        -0.7319 
     21 O         -71.9073   28.6966  -70.5396 O.2       10 UNK        -0.5018 
     22 N         -73.1170   29.5963  -73.8725 N.am      10 UNK        -0.4509 
     23 C         -72.7626   30.2737  -74.9697 C.2       10 UNK         0.4899 
     24 O         -72.0956   31.3101  -74.9538 O.2       10 UNK        -0.4839 
     25 CA        -73.2001   29.6530  -76.3077 C.3       9 UNK         0.0222 
     26 CB        -72.7083   30.4452  -77.5368 C.3       9 UNK        -0.1966 
     27 N         -72.8097   28.2418  -76.4121 N.am      9 UNK        -0.4218 
     28 C         -71.5798   27.7081  -76.3305 C.2       9 UNK         0.5020 
     29 O         -70.5484   28.3632  -76.1756 O.2       9 UNK        -0.5274 
     30 CA        -71.4750   26.1725  -76.4232 C.3       8 UNK         0.0270 
     31 CB        -71.3081   25.5693  -75.0188 C.3       8 UNK        -0.1976 
     32 N         -72.6279   25.5470  -77.0778 N.am      8 UNK        -0.4313 
     33 C         -72.9051   25.6318  -78.3868 C.2       8 UNK         0.5041 
     34 O         -72.1533   26.1445  -79.2166 O.2       8 UNK        -0.5577 
     35 CA        -74.2812   25.1056  -78.8334 C.3       7 UNK         0.0284 
     36 CB        -74.2491   23.5837  -79.0440 C.3       7 UNK        -0.1958 
     37 N         -75.3457   25.4602  -77.8874 N.am      7 UNK        -0.4454 
     38 C         -75.7300   26.7168  -77.6190 C.2       7 UNK         0.5089 
     39 O         -75.2836   27.7062  -78.1964 O.2       7 UNK        -0.5125 
     40 CA        -76.7435   26.9204  -76.4868 C.3       6 UNK         0.0408 
     41 CB        -78.1760   26.7820  -77.0180 C.3       6 UNK        -0.1791 
     42 N         -76.5220   25.9987  -75.3725 N.am      6 UNK        -0.4762 
     43 C         -75.5800   26.1510  -74.4271 C.2       6 UNK         0.5007 
     44 O         -74.8561   27.1466  -74.3235 O.2       6 UNK        -0.5032 
     45 CA        -75.3562   24.9619  -73.4678 C.3       5 UNK         0.0783 
     46 C46       -75.9718   25.1653  -72.0629 C.3       11 UNK        -0.0857 
     47 S47       -77.7889   25.3370  -72.0127 S.3       11 UNK        -0.2512 
     48 C48       -78.0027   26.3423  -70.5069 C.3       11 UNK         0.0225 
     49 N         -75.7203   23.6736  -74.0678 N.am      5 UNK        -0.4615 
     50 C         -74.9802   23.0794  -75.0139 C.2       4 UNK         0.5053 
     51 O         -73.9567   23.5772  -75.4827 O.2       4 UNK        -0.5105 
     52 CA        -75.4596   21.7217  -75.5492 C.3       4 UNK         0.0263 
     53 CB        -74.9811   20.5860  -74.6311 C.3       4 UNK        -0.1981 
     54 N         -76.9076   21.6168  -75.7432 N.am      4 UNK        -0.4224 
     55 C         -77.6517   22.4064  -76.5306 C.2       3 UNK         0.4895 
     56 O         -77.2060   23.3908  -77.1236 O.2       3 UNK        -0.5091 
     57 CA        -79.1349   22.0192  -76.7177 C.3       3 UNK         0.0250 
     58 CB        -79.6231   20.9029  -75.7640 C.3       3 UNK        -0.1996 
     59 N         -80.0454   23.1692  -76.6519 N.am      3 UNK        -0.4254 
     60 C         -80.1726   24.0269  -75.6308 C.2       2 UNK         0.5004 
     61 O         -79.4737   24.0031  -74.6147 O.2       2 UNK        -0.5226 
     62 CA        -81.2932   25.0680  -75.7514 C.3       2 UNK         0.0269 
     63 CB        -82.6672   24.4195  -75.4861 C.3       2 UNK        -0.1926 
     64 N         -81.0348   26.1279  -74.7812 N.am      2 UNK        -0.4687 
     65 C         -81.6176   27.3314  -74.7392 C.2       1 UNK         0.5165 
     66 O         -82.4903   27.6966  -75.5297 O.2       1 UNK        -0.5079 
     67 H67       -77.7000   30.0816  -76.1433 H         1 UNK         0.0900 
     68 H68       -77.9250   31.1082  -74.7257 H         1 UNK         0.0900 
     69 H69       -77.3569   29.4467  -74.5317 H         1 UNK         0.0900 
     70 H70       -79.0322   28.5277  -73.3504 H         1 UNK         0.2959 
     71 H71       -80.9314   27.6186  -72.7806 H         1 UNK         0.1079 
     72 H72       -83.0840   29.2483  -73.6279 H         1 UNK         0.0837 
     73 H73       -81.7798   30.3812  -73.5312 H         1 UNK         0.0837 
     74 H74       -81.1038   30.6987  -69.7502 H         1 UNK         0.0685 
     75 H75       -80.9746   31.4170  -71.3382 H         1 UNK         0.0685 
     76 H76       -80.2353   27.8762  -70.2423 H         1 UNK         0.1434 
     77 H77       -76.1315   28.1082  -71.4619 H         1 UNK         0.1329 
     78 H78       -78.6140   31.5854  -71.6653 H         1 UNK         0.1335 
     79 H79       -75.6551   30.2066  -73.0055 H         1 UNK         0.0680 
     80 H80       -76.3424   31.7157  -72.4441 H         1 UNK         0.0680 
     81 H81       -72.5408   31.6005  -71.2019 H         1 UNK         0.1032 
     82 H82       -73.4929   31.8981  -72.6141 H         1 UNK         0.1032 
     83 H83       -71.5584   30.1465  -72.6699 H         1 UNK         0.0461 
     84 H84       -73.5595   27.3844  -72.8558 H         1 UNK         0.3453 
     85 H85       -72.9241   26.6747  -71.3895 H         1 UNK         0.3453 
     86 H86       -73.6786   28.7592  -73.9796 H         1 UNK         0.2984 
     87 H87       -74.2909   29.6728  -76.3157 H         1 UNK         0.0554 
     88 H88       -73.0714   31.4732  -77.5099 H         1 UNK         0.0847 
     89 H89       -73.0694   29.9978  -78.4630 H         1 UNK         0.0847 
     90 H90       -71.6196   30.4850  -77.5854 H         1 UNK         0.0847 
     91 H91       -73.5786   27.5997  -76.5422 H         1 UNK         0.3141 
     92 H92       -70.5828   25.9372  -77.0071 H         1 UNK         0.0743 
     93 H93       -70.4325   25.9828  -74.5164 H         1 UNK         0.0784 
     94 H94       -72.1726   25.7752  -74.3876 H         1 UNK         0.0784 
     95 H95       -71.1762   24.4880  -75.0637 H         1 UNK         0.0784 
     96 H96       -73.2521   25.0023  -76.4854 H         1 UNK         0.3213 
     97 H97       -74.5214   25.5751  -79.7898 H         1 UNK         0.0855 
     98 H98       -73.9695   23.0539  -78.1341 H         1 UNK         0.0814 
     99 H99       -73.5223   23.3145  -79.8113 H         1 UNK         0.0814 
    100 H100      -75.2192   23.2060  -79.3680 H         1 UNK         0.0814 
    101 H101      -75.8338   24.6949  -77.4286 H         1 UNK         0.3105 
    102 H102      -76.6121   27.9374  -76.1200 H         1 UNK         0.0547 
    103 H103      -78.3658   25.7898  -77.4273 H         1 UNK         0.0837 
    104 H104      -78.3680   27.5041  -77.8127 H         1 UNK         0.0837 
    105 H105      -78.9034   26.9689  -76.2322 H         1 UNK         0.0837 
    106 H106      -77.0524   25.1365  -75.3816 H         1 UNK         0.3020 
    107 H107      -74.2756   24.9288  -73.3087 H         1 UNK         0.1245 
    108 H108      -75.5091   26.0282  -71.5865 H         1 UNK         0.0781 
    109 H109      -75.7059   24.3189  -71.4276 H         1 UNK         0.0781 
    110 H110      -77.1590   26.2025  -69.8296 H         1 UNK         0.0836 
    111 H111      -78.8775   25.9696  -69.9719 H         1 UNK         0.0836 
    112 H112      -76.5759   23.2413  -73.7478 H         1 UNK         0.3022 
    113 H113      -74.9964   21.5788  -76.5271 H         1 UNK         0.0747 
    114 H114      -75.2081   19.6082  -75.0565 H         1 UNK         0.0793 
    115 H115      -73.9004   20.6299  -74.4867 H         1 UNK         0.0793 
    116 H116      -75.4440   20.6399  -73.6449 H         1 UNK         0.0793 
    117 H117      -77.3669   20.8426  -75.2860 H         1 UNK         0.3047 
    118 H118      -79.2092   21.6346  -77.7359 H         1 UNK         0.0822 
    119 H119      -80.6723   20.6679  -75.9447 H         1 UNK         0.0807 
    120 H120      -79.5296   21.1902  -74.7157 H         1 UNK         0.0807 
    121 H121      -79.0673   19.9761  -75.9115 H         1 UNK         0.0807 
    122 H122      -80.6417   23.2928  -77.4583 H         1 UNK         0.2946 
    123 H123      -81.2692   25.4955  -76.7564 H         1 UNK         0.1144 
    124 H124      -83.4800   25.1369  -75.5983 H         1 UNK         0.0793 
    125 H125      -82.7254   24.0037  -74.4793 H         1 UNK         0.0793 
    126 H126      -82.8626   23.6064  -76.1862 H         1 UNK         0.0793 
    127 H127      -80.2960   25.8943  -74.1264 H         1 UNK         0.2896 
@<TRIPOS>BOND
     1    1    2 1    
     2    1   67 1    
     3    1   68 1    
     4    1   69 1    
     5    2    3 2    
     6    2    4 am   BACKBONE|DICT|INTERRES
     7    4    5 1    
     8    4   70 1    
     9    5    6 1    
    10    5   65 1    
    11    5   71 1    
    12    6    7 1    
    13    6   72 1    
    14    6   73 1    
    15    7    8 1    
    16    8    9 1    
    17    8   74 1    
    18    8   75 1    
    19    9   10 ar   
    20    9   14 ar   
    21   10   11 ar   
    22   10   76 1    
    23   11   12 ar   
    24   11   48 1    
    25   12   13 ar   
    26   12   77 1    
    27   13   14 ar   
    28   13   15 1    
    29   14   78 1    
    30   15   16 1    
    31   15   79 1    
    32   15   80 1    
    33   16   17 1    
    34   17   18 1    
    35   17   81 1    
    36   17   82 1    
    37   18   19 1    
    38   18   22 1    
    39   18   83 1    
    40   19   20 am   BACKBONE|DICT|INTERRES
    41   19   21 2    
    42   20   84 1    
    43   20   85 1    
    44   22   23 am   BACKBONE|DICT|INTERRES
    45   22   86 1    
    46   23   24 2    
    47   23   25 1    
    48   25   26 1    
    49   25   27 1    
    50   25   87 1    
    51   26   88 1    
    52   26   89 1    
    53   26   90 1    
    54   27   28 am   BACKBONE|DICT|INTERRES
    55   27   91 1    
    56   28   29 2    
    57   28   30 1    
    58   30   31 1    
    59   30   32 1    
    60   30   92 1    
    61   31   93 1    
    62   31   94 1    
    63   31   95 1    
    64   32   33 am   BACKBONE|DICT|INTERRES
    65   32   96 1    
    66   33   34 2    
    67   33   35 1    
    68   35   36 1    
    69   35   37 1    
    70   35   97 1    
    71   36   98 1    
    72   36   99 1    
    73   36  100 1    
    74   37   38 am   BACKBONE|DICT|INTERRES
    75   37  101 1    
    76   38   39 2    
    77   38   40 1    
    78   40   41 1    
    79   40   42 1    
    80   40  102 1    
    81   41  103 1    
    82   41  104 1    
    83   41  105 1    
    84   42   43 am   BACKBONE|DICT|INTERRES
    85   42  106 1    
    86   43   44 2    
    87   43   45 1    
    88   45   46 1    
    89   45   49 1    
    90   45  107 1    
    91   46   47 1    
    92   46  108 1    
    93   46  109 1    
    94   47   48 1    
    95   48  110 1    
    96   48  111 1    
    97   49   50 am   BACKBONE|DICT|INTERRES
    98   49  112 1    
    99   50   51 2    
   100   50   52 1    
   101   52   53 1    
   102   52   54 1    
   103   52  113 1    
   104   53  114 1    
   105   53  115 1    
   106   53  116 1    
   107   54   55 am   BACKBONE|DICT|INTERRES
   108   54  117 1    
   109   55   56 2    
   110   55   57 1    
   111   57   58 1    
   112   57   59 1    
   113   57  118 1    
   114   58  119 1    
   115   58  120 1    
   116   58  121 1    
   117   59   60 am   BACKBONE|DICT|INTERRES
   118   59  122 1    
   119   60   61 2    
   120   60   62 1    
   121   62   63 1    
   122   62   64 1    
   123   62  123 1    
   124   63  124 1    
   125   63  125 1    
   126   63  126 1    
   127   64   65 am   BACKBONE|DICT|INTERRES
   128   64  127 1    
   129   65   66 2    
@<TRIPOS>SUBSTRUCTURE
     1 UNK         1 GROUP             0       ****    0 ROOT    
