@<TRIPOS>MOLECULE
3R135
127   129    1
SMALL
USER_CHARGES


@<TRIPOS>ATOM
      1 CA        -84.3781   28.5853  -74.0486 C.3       0 UNK        -0.1998 
      2 C         -83.5127   27.4763  -73.4694 C.2       0 UNK         0.4909 
      3 O         -84.0328   26.4172  -73.1191 O.2       0 UNK        -0.5240 
      4 N         -82.1952   27.7126  -73.3747 N.am      1 UNK        -0.4739 
      5 CA        -81.1801   26.7835  -72.8461 C.3       1 UNK         0.0864 
      6 C6        -81.4566   26.3613  -71.3735 C.3       11 UNK        -0.0881 
      7 S7        -79.9514   26.2657  -70.3438 S.3       11 UNK        -0.2682 
      8 C8        -79.9147   27.9074  -69.5520 C.3       11 UNK         0.0289 
      9 C9        -78.9576   28.8532  -70.2637 C.ar      11 UNK        -0.0687 
     10 C10       -79.3591   29.5428  -71.4107 C.ar      11 UNK        -0.0823 
     11 C11       -78.4752   30.4027  -72.0694 C.ar      11 UNK        -0.0830 
     12 C12       -77.2005   30.6134  -71.5362 C.ar      11 UNK        -0.1021 
     13 C13       -76.7802   29.9312  -70.3857 C.ar      11 UNK        -0.0753 
     14 C14       -77.6675   29.0486  -69.7624 C.ar      11 UNK        -0.0933 
     15 C15       -75.3903   30.1219  -69.7715 C.3       11 UNK         0.0166 
     16 S16       -74.1117   30.7630  -70.9058 S.3       11 UNK        -0.2615 
     17 C17       -74.1038   29.4648  -72.1868 C.3       11 UNK        -0.0865 
     18 CA        -72.6858   28.9166  -72.4943 C.3       10 UNK         0.0862 
     19 C         -72.2467   27.7497  -71.5597 C.2       10 UNK         0.5551 
     20 N         -71.5210   26.7490  -72.0484 N.am      10 UNK        -0.7319 
     21 O         -72.5463   27.7528  -70.3685 O.2       10 UNK        -0.5018 
     22 N         -72.5860   28.5612  -73.9143 N.am      10 UNK        -0.4509 
     23 C         -71.7851   29.1414  -74.8140 C.2       10 UNK         0.4899 
     24 O         -71.0658   30.1110  -74.5672 O.2       10 UNK        -0.4839 
     25 CA        -71.7852   28.5340  -76.2318 C.3       9 UNK         0.0222 
     26 CB        -70.4821   28.8331  -77.0032 C.3       9 UNK        -0.1966 
     27 N         -72.0777   27.0945  -76.2680 N.am      9 UNK        -0.4218 
     28 C         -71.3992   26.1064  -75.6618 C.2       9 UNK         0.5020 
     29 O         -70.4556   26.2954  -74.8925 O.2       9 UNK        -0.5274 
     30 CA        -71.8544   24.6600  -75.9323 C.3       8 UNK         0.0270 
     31 CB        -72.3522   23.9948  -74.6399 C.3       8 UNK        -0.1976 
     32 N         -72.8939   24.5589  -76.9617 N.am      8 UNK        -0.4313 
     33 C         -72.6621   24.6194  -78.2798 C.2       8 UNK         0.5041 
     34 O         -71.5425   24.7599  -78.7728 O.2       8 UNK        -0.5577 
     35 CA        -73.8835   24.5338  -79.2007 C.3       7 UNK         0.0284 
     36 CB        -74.3879   23.0840  -79.3098 C.3       7 UNK        -0.1958 
     37 N         -74.9695   25.4061  -78.7409 N.am      7 UNK        -0.4454 
     38 C         -75.2382   26.6050  -79.2744 C.2       7 UNK         0.5089 
     39 O         -74.5326   27.1499  -80.1240 O.2       7 UNK        -0.5125 
     40 CA        -76.5366   27.2988  -78.8351 C.3       6 UNK         0.0408 
     41 CB        -77.7435   26.6665  -79.5478 C.3       6 UNK        -0.1791 
     42 N         -76.7736   27.2904  -77.3916 N.am      6 UNK        -0.4762 
     43 C         -76.1899   28.1301  -76.5241 C.2       6 UNK         0.5007 
     44 O         -75.2557   28.8755  -76.8176 O.2       6 UNK        -0.5032 
     45 CA        -76.7565   28.1455  -75.0912 C.3       5 UNK         0.0783 
     46 C46       -78.0990   28.9196  -74.9995 C.3       11 UNK        -0.0857 
     47 S47       -77.8427   30.7143  -74.7819 S.3       11 UNK        -0.2512 
     48 C48       -78.9026   31.1161  -73.3474 C.3       11 UNK         0.0225 
     49 N         -76.8884   26.7819  -74.5868 N.am      5 UNK        -0.4615 
     50 C         -75.9032   26.1097  -73.9810 C.2       4 UNK         0.5053 
     51 O         -74.7847   26.5767  -73.7673 O.2       4 UNK        -0.5105 
     52 CA        -76.2148   24.6595  -73.5731 C.3       4 UNK         0.0263 
     53 CB        -76.8972   24.6276  -72.1977 C.3       4 UNK        -0.1981 
     54 N         -77.0437   23.9578  -74.5586 N.am      4 UNK        -0.4224 
     55 C         -76.6544   23.7109  -75.8186 C.2       3 UNK         0.4895 
     56 O         -75.5466   24.0155  -76.2595 O.2       3 UNK        -0.5091 
     57 CA        -77.6703   23.0643  -76.7758 C.3       3 UNK         0.0250 
     58 CB        -77.4929   21.5384  -76.7901 C.3       3 UNK        -0.1996 
     59 N         -79.0719   23.3915  -76.4977 N.am      3 UNK        -0.4254 
     60 C         -79.5883   24.6271  -76.4394 C.2       2 UNK         0.5004 
     61 O         -78.9187   25.6545  -76.5724 O.2       2 UNK        -0.5226 
     62 CA        -81.0957   24.7599  -76.1562 C.3       2 UNK         0.0269 
     63 CB        -81.8279   23.4203  -75.9087 C.3       2 UNK        -0.1926 
     64 N         -81.3347   25.6947  -75.0522 N.am      2 UNK        -0.4687 
     65 C         -80.8824   25.5946  -73.7914 C.2       1 UNK         0.5165 
     66 O         -80.2213   24.6376  -73.3844 O.2       1 UNK        -0.5079 
     67 H67       -84.8925   28.2322  -74.9419 H         1 UNK         0.0900 
     68 H68       -85.1299   28.8914  -73.3216 H         1 UNK         0.0900 
     69 H69       -83.7920   29.4633  -74.3193 H         1 UNK         0.0900 
     70 H70       -81.8402   28.6006  -73.7015 H         1 UNK         0.2959 
     71 H71       -80.2514   27.3512  -72.8579 H         1 UNK         0.1079 
     72 H72       -82.1466   27.0590  -70.8976 H         1 UNK         0.0837 
     73 H73       -81.9683   25.3977  -71.3335 H         1 UNK         0.0837 
     74 H74       -80.9124   28.3455  -69.5090 H         1 UNK         0.0685 
     75 H75       -79.6049   27.7784  -68.5138 H         1 UNK         0.0685 
     76 H76       -80.3617   29.4063  -71.7891 H         1 UNK         0.1434 
     77 H77       -76.5376   31.3048  -72.0364 H         1 UNK         0.1329 
     78 H78       -77.3552   28.5167  -68.8739 H         1 UNK         0.1335 
     79 H79       -75.4767   30.8073  -68.9276 H         1 UNK         0.0680 
     80 H80       -75.0338   29.1736  -69.3654 H         1 UNK         0.0680 
     81 H81       -74.7877   28.6535  -71.9294 H         1 UNK         0.1032 
     82 H82       -74.5288   29.9293  -73.0777 H         1 UNK         0.1032 
     83 H83       -71.9680   29.7116  -72.2865 H         1 UNK         0.0461 
     84 H84       -71.2234   26.7444  -73.0169 H         1 UNK         0.3453 
     85 H85       -71.2373   26.0045  -71.4325 H         1 UNK         0.3453 
     86 H86       -73.1465   27.7593  -74.1848 H         1 UNK         0.2984 
     87 H87       -72.5989   29.0227  -76.7678 H         1 UNK         0.0554 
     88 H88       -70.3250   29.9072  -77.1096 H         1 UNK         0.0847 
     89 H89       -70.5100   28.4116  -78.0081 H         1 UNK         0.0847 
     90 H90       -69.6088   28.4255  -76.4927 H         1 UNK         0.0847 
     91 H91       -72.8608   26.8244  -76.8457 H         1 UNK         0.3141 
     92 H92       -70.9776   24.1066  -76.2751 H         1 UNK         0.0743 
     93 H93       -73.1519   24.5706  -74.1795 H         1 UNK         0.0784 
     94 H94       -72.7217   22.9856  -74.8226 H         1 UNK         0.0784 
     95 H95       -71.5483   23.9194  -73.9065 H         1 UNK         0.0784 
     96 H96       -73.8503   24.4052  -76.6404 H         1 UNK         0.3213 
     97 H97       -73.5617   24.8370  -80.1998 H         1 UNK         0.0855 
     98 H98       -74.6877   22.6754  -78.3452 H         1 UNK         0.0814 
     99 H99       -73.6081   22.4326  -79.7067 H         1 UNK         0.0814 
    100 H100      -75.2420   23.0120  -79.9833 H         1 UNK         0.0814 
    101 H101      -75.5429   25.0583  -77.9810 H         1 UNK         0.3105 
    102 H102      -76.4760   28.3402  -79.1594 H         1 UNK         0.0547 
    103 H103      -77.6144   26.6884  -80.6307 H         1 UNK         0.0837 
    104 H104      -77.8873   25.6252  -79.2573 H         1 UNK         0.0837 
    105 H105      -78.6639   27.2049  -79.3210 H         1 UNK         0.0837 
    106 H106      -77.5361   26.6989  -77.0625 H         1 UNK         0.3020 
    107 H107      -76.0279   28.6640  -74.4646 H         1 UNK         0.1245 
    108 H108      -78.6725   28.5578  -74.1470 H         1 UNK         0.0781 
    109 H109      -78.7340   28.7453  -75.8706 H         1 UNK         0.0781 
    110 H110      -79.9383   30.8829  -73.5990 H         1 UNK         0.0836 
    111 H111      -78.8666   32.1929  -73.1768 H         1 UNK         0.0836 
    112 H112      -77.7450   26.2938  -74.8136 H         1 UNK         0.3022 
    113 H113      -75.2707   24.1198  -73.4912 H         1 UNK         0.0747 
    114 H114      -77.0831   23.6058  -71.8671 H         1 UNK         0.0793 
    115 H115      -76.2726   25.1055  -71.4416 H         1 UNK         0.0793 
    116 H116      -77.8508   25.1553  -72.2093 H         1 UNK         0.0793 
    117 H117      -77.9831   23.7089  -74.2780 H         1 UNK         0.3047 
    118 H118      -77.4476   23.4393  -77.7768 H         1 UNK         0.0822 
    119 H119      -78.1199   21.0721  -77.5503 H         1 UNK         0.0807 
    120 H120      -77.7443   21.0933  -75.8265 H         1 UNK         0.0807 
    121 H121      -76.4605   21.2661  -77.0148 H         1 UNK         0.0807 
    122 H122      -79.6956   22.6111  -76.3506 H         1 UNK         0.2946 
    123 H123      -81.5267   25.2138  -77.0500 H         1 UNK         0.1144 
    124 H124      -82.8895   23.5875  -75.7254 H         1 UNK         0.0793 
    125 H125      -81.4304   22.8820  -75.0474 H         1 UNK         0.0793 
    126 H126      -81.7587   22.7630  -76.7766 H         1 UNK         0.0793 
    127 H127      -81.8424   26.5339  -75.2932 H         1 UNK         0.2896 
@<TRIPOS>BOND
     1    1    2 1    
     2    1   67 1    
     3    1   68 1    
     4    1   69 1    
     5    2    3 2    
     6    2    4 am   BACKBONE|DICT|INTERRES
     7    4    5 1    
     8    4   70 1    
     9    5    6 1    
    10    5   65 1    
    11    5   71 1    
    12    6    7 1    
    13    6   72 1    
    14    6   73 1    
    15    7    8 1    
    16    8    9 1    
    17    8   74 1    
    18    8   75 1    
    19    9   10 ar   
    20    9   14 ar   
    21   10   11 ar   
    22   10   76 1    
    23   11   12 ar   
    24   11   48 1    
    25   12   13 ar   
    26   12   77 1    
    27   13   14 ar   
    28   13   15 1    
    29   14   78 1    
    30   15   16 1    
    31   15   79 1    
    32   15   80 1    
    33   16   17 1    
    34   17   18 1    
    35   17   81 1    
    36   17   82 1    
    37   18   19 1    
    38   18   22 1    
    39   18   83 1    
    40   19   20 am   BACKBONE|DICT|INTERRES
    41   19   21 2    
    42   20   84 1    
    43   20   85 1    
    44   22   23 am   BACKBONE|DICT|INTERRES
    45   22   86 1    
    46   23   24 2    
    47   23   25 1    
    48   25   26 1    
    49   25   27 1    
    50   25   87 1    
    51   26   88 1    
    52   26   89 1    
    53   26   90 1    
    54   27   28 am   BACKBONE|DICT|INTERRES
    55   27   91 1    
    56   28   29 2    
    57   28   30 1    
    58   30   31 1    
    59   30   32 1    
    60   30   92 1    
    61   31   93 1    
    62   31   94 1    
    63   31   95 1    
    64   32   33 am   BACKBONE|DICT|INTERRES
    65   32   96 1    
    66   33   34 2    
    67   33   35 1    
    68   35   36 1    
    69   35   37 1    
    70   35   97 1    
    71   36   98 1    
    72   36   99 1    
    73   36  100 1    
    74   37   38 am   BACKBONE|DICT|INTERRES
    75   37  101 1    
    76   38   39 2    
    77   38   40 1    
    78   40   41 1    
    79   40   42 1    
    80   40  102 1    
    81   41  103 1    
    82   41  104 1    
    83   41  105 1    
    84   42   43 am   BACKBONE|DICT|INTERRES
    85   42  106 1    
    86   43   44 2    
    87   43   45 1    
    88   45   46 1    
    89   45   49 1    
    90   45  107 1    
    91   46   47 1    
    92   46  108 1    
    93   46  109 1    
    94   47   48 1    
    95   48  110 1    
    96   48  111 1    
    97   49   50 am   BACKBONE|DICT|INTERRES
    98   49  112 1    
    99   50   51 2    
   100   50   52 1    
   101   52   53 1    
   102   52   54 1    
   103   52  113 1    
   104   53  114 1    
   105   53  115 1    
   106   53  116 1    
   107   54   55 am   BACKBONE|DICT|INTERRES
   108   54  117 1    
   109   55   56 2    
   110   55   57 1    
   111   57   58 1    
   112   57   59 1    
   113   57  118 1    
   114   58  119 1    
   115   58  120 1    
   116   58  121 1    
   117   59   60 am   BACKBONE|DICT|INTERRES
   118   59  122 1    
   119   60   61 2    
   120   60   62 1    
   121   62   63 1    
   122   62   64 1    
   123   62  123 1    
   124   63  124 1    
   125   63  125 1    
   126   63  126 1    
   127   64   65 am   BACKBONE|DICT|INTERRES
   128   64  127 1    
   129   65   66 2    
@<TRIPOS>SUBSTRUCTURE
     1 UNK         1 GROUP             0       ****    0 ROOT    
