@<TRIPOS>MOLECULE
3R135
127   129    1
SMALL
USER_CHARGES


@<TRIPOS>ATOM
      1 CA        -85.9258   29.8423  -75.5795 C.3       0 UNK        -0.1998 
      2 C         -84.6554   29.2682  -74.9697 C.2       0 UNK         0.4909 
      3 O         -84.6852   28.7976  -73.8320 O.2       0 UNK        -0.5240 
      4 N         -83.5440   29.3108  -75.7181 N.am      1 UNK        -0.4739 
      5 CA        -82.2286   28.7720  -75.3498 C.3       1 UNK         0.0864 
      6 C6        -81.6055   29.5015  -74.1223 C.3       11 UNK        -0.0881 
      7 S7        -79.7830   29.4300  -74.1343 S.3       11 UNK        -0.2682 
      8 C8        -79.3735   29.5472  -72.3641 C.3       11 UNK         0.0289 
      9 C9        -78.1349   28.7234  -72.0471 C.ar      11 UNK        -0.0687 
     10 C10       -78.2523   27.5159  -71.3521 C.ar      11 UNK        -0.0823 
     11 C11       -77.1245   26.7305  -71.0959 C.ar      11 UNK        -0.0830 
     12 C12       -75.8720   27.1630  -71.5368 C.ar      11 UNK        -0.1021 
     13 C13       -75.7429   28.3644  -72.2380 C.ar      11 UNK        -0.0753 
     14 C14       -76.8742   29.1506  -72.4759 C.ar      11 UNK        -0.0933 
     15 C15       -74.3954   28.7551  -72.8183 C.3       11 UNK         0.0166 
     16 S16       -73.2136   29.2876  -71.5398 S.3       11 UNK        -0.2615 
     17 C17       -73.1528   31.0928  -71.8253 C.3       11 UNK        -0.0865 
     18 CA        -72.0350   31.5252  -72.8149 C.3       10 UNK         0.0862 
     19 C         -70.6094   31.4225  -72.1928 C.2       10 UNK         0.5551 
     20 N         -69.6827   30.6537  -72.7550 N.am      10 UNK        -0.7319 
     21 O         -70.3356   32.0701  -71.1852 O.2       10 UNK        -0.5018 
     22 N         -72.1886   30.8457  -74.1074 N.am      10 UNK        -0.4509 
     23 C         -71.7408   31.2848  -75.2869 C.2       10 UNK         0.4899 
     24 O         -71.2129   32.3853  -75.4529 O.2       10 UNK        -0.4839 
     25 CA        -71.9253   30.3225  -76.4784 C.3       9 UNK         0.0222 
     26 CB        -70.9275   30.5999  -77.6225 C.3       9 UNK        -0.1966 
     27 N         -71.9029   28.8969  -76.1114 N.am      9 UNK        -0.4218 
     28 C         -70.8958   28.2247  -75.5246 C.2       9 UNK         0.5020 
     29 O         -69.8700   28.7680  -75.1115 O.2       9 UNK        -0.5274 
     30 CA        -71.0418   26.6975  -75.3469 C.3       8 UNK         0.0270 
     31 CB        -71.1275   26.3237  -73.8574 C.3       8 UNK        -0.1976 
     32 N         -72.1854   26.1195  -76.0607 N.am      8 UNK        -0.4313 
     33 C         -72.2578   25.9824  -77.3949 C.2       8 UNK         0.5041 
     34 O         -71.3164   26.2246  -78.1512 O.2       8 UNK        -0.5577 
     35 CA        -73.6026   25.5368  -78.0076 C.3       7 UNK         0.0284 
     36 CB        -73.5415   24.0552  -78.4135 C.3       7 UNK        -0.1958 
     37 N         -74.7699   25.7412  -77.1451 N.am      7 UNK        -0.4454 
     38 C         -75.1695   26.9016  -76.6053 C.2       7 UNK         0.5089 
     39 O         -74.6248   27.9843  -76.8250 O.2       7 UNK        -0.5125 
     40 CA        -76.3259   26.8276  -75.5918 C.3       6 UNK         0.0408 
     41 CB        -77.6510   27.1853  -76.2782 C.3       6 UNK        -0.1791 
     42 N         -76.4584   25.5331  -74.9036 N.am      6 UNK        -0.4762 
     43 C         -75.4938   24.9137  -74.2012 C.2       6 UNK         0.5007 
     44 O         -74.3561   25.3711  -74.0758 O.2       6 UNK        -0.5032 
     45 CA        -75.7899   23.5237  -73.6087 C.3       5 UNK         0.0783 
     46 C46       -75.9766   23.5360  -72.0682 C.3       11 UNK        -0.0857 
     47 S47       -77.6359   24.0372  -71.4879 S.3       11 UNK        -0.2512 
     48 C48       -77.2662   25.4119  -70.3530 C.3       11 UNK         0.0225 
     49 N         -76.8734   22.8282  -74.3145 N.am      5 UNK        -0.4615 
     50 C         -76.7795   21.5862  -74.8085 C.2       4 UNK         0.5053 
     51 O         -75.7574   20.9020  -74.7426 O.2       4 UNK        -0.5105 
     52 CA        -78.0247   20.9789  -75.4844 C.3       4 UNK         0.0263 
     53 CB        -78.7716   20.0671  -74.4972 C.3       4 UNK        -0.1981 
     54 N         -78.9625   21.9666  -76.0202 N.am      4 UNK        -0.4224 
     55 C         -78.7103   22.8035  -77.0358 C.2       3 UNK         0.4895 
     56 O         -77.6641   22.7982  -77.6854 O.2       3 UNK        -0.5091 
     57 CA        -79.7982   23.8421  -77.3748 C.3       3 UNK         0.0250 
     58 CB        -80.6644   23.3400  -78.5413 C.3       3 UNK        -0.1996 
     59 N         -80.6772   24.2462  -76.2655 N.am      3 UNK        -0.4254 
     60 C         -80.2873   24.6769  -75.0573 C.2       2 UNK         0.5004 
     61 O         -79.1135   24.6990  -74.6850 O.2       2 UNK        -0.5226 
     62 CA        -81.3885   25.1966  -74.1230 C.3       2 UNK         0.0269 
     63 CB        -81.0715   24.9063  -72.6465 C.3       2 UNK        -0.1926 
     64 N         -81.5295   26.6400  -74.3022 N.am      2 UNK        -0.4687 
     65 C         -82.2639   27.2251  -75.2564 C.2       1 UNK         0.5165 
     66 O         -82.9395   26.5854  -76.0676 O.2       1 UNK        -0.5079 
     67 H67       -86.3070   30.6525  -74.9585 H         1 UNK         0.0900 
     68 H68       -85.7567   30.2346  -76.5821 H         1 UNK         0.0900 
     69 H69       -86.6929   29.0709  -75.6423 H         1 UNK         0.0900 
     70 H70       -83.6029   29.6845  -76.6555 H         1 UNK         0.2959 
     71 H71       -81.5959   28.9845  -76.2134 H         1 UNK         0.1079 
     72 H72       -81.8760   30.5584  -74.1421 H         1 UNK         0.0837 
     73 H73       -82.0105   29.1128  -73.1863 H         1 UNK         0.0837 
     74 H74       -79.2022   30.5923  -72.1022 H         1 UNK         0.0685 
     75 H75       -80.2136   29.2107  -71.7553 H         1 UNK         0.0685 
     76 H76       -79.2242   27.1785  -71.0202 H         1 UNK         0.1434 
     77 H77       -74.9966   26.5523  -71.3639 H         1 UNK         0.1329 
     78 H78       -76.7851   30.0728  -73.0337 H         1 UNK         0.1335 
     79 H79       -73.9806   27.8957  -73.3429 H         1 UNK         0.0680 
     80 H80       -74.5227   29.5270  -73.5779 H         1 UNK         0.0680 
     81 H81       -74.1234   31.4311  -72.1911 H         1 UNK         0.1032 
     82 H82       -73.0246   31.5905  -70.8621 H         1 UNK         0.1032 
     83 H83       -72.1833   32.5910  -72.9991 H         1 UNK         0.0461 
     84 H84       -68.7663   30.6077  -72.3394 H         1 UNK         0.3453 
     85 H85       -69.8827   30.1124  -73.5888 H         1 UNK         0.3453 
     86 H86       -72.5651   29.9117  -74.0612 H         1 UNK         0.2984 
     87 H87       -72.9276   30.5138  -76.8641 H         1 UNK         0.0554 
     88 H88       -71.0369   31.6163  -78.0027 H         1 UNK         0.0847 
     89 H89       -71.0886   29.9233  -78.4618 H         1 UNK         0.0847 
     90 H90       -69.8941   30.4855  -77.2933 H         1 UNK         0.0847 
     91 H91       -72.7342   28.3775  -76.3816 H         1 UNK         0.3141 
     92 H92       -70.1327   26.2465  -75.7504 H         1 UNK         0.0743 
     93 H93       -72.0092   26.7484  -73.3798 H         1 UNK         0.0784 
     94 H94       -71.1640   25.2427  -73.7213 H         1 UNK         0.0784 
     95 H95       -70.2567   26.6887  -73.3111 H         1 UNK         0.0784 
     96 H96       -72.9954   25.8770  -75.4963 H         1 UNK         0.3213 
     97 H97       -73.7572   26.1354  -78.9076 H         1 UNK         0.0855 
     98 H98       -73.4122   23.4049  -77.5472 H         1 UNK         0.0814 
     99 H99       -72.7050   23.8689  -79.0887 H         1 UNK         0.0814 
    100 H100      -74.4491   23.7465  -78.9330 H         1 UNK         0.0814 
    101 H101      -75.2926   24.9147  -76.8919 H         1 UNK         0.3105 
    102 H102      -76.1332   27.5799  -74.8291 H         1 UNK         0.0547 
    103 H103      -77.6052   28.1818  -76.7195 H         1 UNK         0.0837 
    104 H104      -77.8919   26.4845  -77.0764 H         1 UNK         0.0837 
    105 H105      -78.4766   27.1867  -75.5679 H         1 UNK         0.0837 
    106 H106      -77.3964   25.1361  -74.8927 H         1 UNK         0.3020 
    107 H107      -74.8597   22.9799  -73.7898 H         1 UNK         0.1245 
    108 H108      -75.2078   24.1468  -71.5925 H         1 UNK         0.0781 
    109 H109      -75.8087   22.5264  -71.6906 H         1 UNK         0.0781 
    110 H110      -76.3671   25.1933  -69.7748 H         1 UNK         0.0836 
    111 H111      -78.0766   25.4886  -69.6266 H         1 UNK         0.0836 
    112 H112      -77.7520   23.3321  -74.3922 H         1 UNK         0.3022 
    113 H113      -77.6749   20.3672  -76.3188 H         1 UNK         0.0747 
    114 H114      -79.6078   19.5593  -74.9783 H         1 UNK         0.0793 
    115 H115      -78.1102   19.2943  -74.1024 H         1 UNK         0.0793 
    116 H116      -79.1609   20.6278  -73.6462 H         1 UNK         0.0793 
    117 H117      -79.8491   22.0543  -75.5460 H         1 UNK         0.3047 
    118 H118      -79.2792   24.7410  -77.7088 H         1 UNK         0.0822 
    119 H119      -81.3539   24.1110  -78.8859 H         1 UNK         0.0807 
    120 H120      -81.2513   22.4646  -78.2599 H         1 UNK         0.0807 
    121 H121      -80.0467   23.0575  -79.3953 H         1 UNK         0.0807 
    122 H122      -81.6624   24.3038  -76.4853 H         1 UNK         0.2946 
    123 H123      -82.3282   24.6965  -74.3696 H         1 UNK         0.1144 
    124 H124      -81.8845   25.2273  -71.9952 H         1 UNK         0.0793 
    125 H125      -80.1635   25.4140  -72.3228 H         1 UNK         0.0793 
    126 H126      -80.9223   23.8386  -72.4806 H         1 UNK         0.0793 
    127 H127      -80.9403   27.2271  -73.7275 H         1 UNK         0.2896 
@<TRIPOS>BOND
     1    1    2 1    
     2    1   67 1    
     3    1   68 1    
     4    1   69 1    
     5    2    3 2    
     6    2    4 am   BACKBONE|DICT|INTERRES
     7    4    5 1    
     8    4   70 1    
     9    5    6 1    
    10    5   65 1    
    11    5   71 1    
    12    6    7 1    
    13    6   72 1    
    14    6   73 1    
    15    7    8 1    
    16    8    9 1    
    17    8   74 1    
    18    8   75 1    
    19    9   10 ar   
    20    9   14 ar   
    21   10   11 ar   
    22   10   76 1    
    23   11   12 ar   
    24   11   48 1    
    25   12   13 ar   
    26   12   77 1    
    27   13   14 ar   
    28   13   15 1    
    29   14   78 1    
    30   15   16 1    
    31   15   79 1    
    32   15   80 1    
    33   16   17 1    
    34   17   18 1    
    35   17   81 1    
    36   17   82 1    
    37   18   19 1    
    38   18   22 1    
    39   18   83 1    
    40   19   20 am   BACKBONE|DICT|INTERRES
    41   19   21 2    
    42   20   84 1    
    43   20   85 1    
    44   22   23 am   BACKBONE|DICT|INTERRES
    45   22   86 1    
    46   23   24 2    
    47   23   25 1    
    48   25   26 1    
    49   25   27 1    
    50   25   87 1    
    51   26   88 1    
    52   26   89 1    
    53   26   90 1    
    54   27   28 am   BACKBONE|DICT|INTERRES
    55   27   91 1    
    56   28   29 2    
    57   28   30 1    
    58   30   31 1    
    59   30   32 1    
    60   30   92 1    
    61   31   93 1    
    62   31   94 1    
    63   31   95 1    
    64   32   33 am   BACKBONE|DICT|INTERRES
    65   32   96 1    
    66   33   34 2    
    67   33   35 1    
    68   35   36 1    
    69   35   37 1    
    70   35   97 1    
    71   36   98 1    
    72   36   99 1    
    73   36  100 1    
    74   37   38 am   BACKBONE|DICT|INTERRES
    75   37  101 1    
    76   38   39 2    
    77   38   40 1    
    78   40   41 1    
    79   40   42 1    
    80   40  102 1    
    81   41  103 1    
    82   41  104 1    
    83   41  105 1    
    84   42   43 am   BACKBONE|DICT|INTERRES
    85   42  106 1    
    86   43   44 2    
    87   43   45 1    
    88   45   46 1    
    89   45   49 1    
    90   45  107 1    
    91   46   47 1    
    92   46  108 1    
    93   46  109 1    
    94   47   48 1    
    95   48  110 1    
    96   48  111 1    
    97   49   50 am   BACKBONE|DICT|INTERRES
    98   49  112 1    
    99   50   51 2    
   100   50   52 1    
   101   52   53 1    
   102   52   54 1    
   103   52  113 1    
   104   53  114 1    
   105   53  115 1    
   106   53  116 1    
   107   54   55 am   BACKBONE|DICT|INTERRES
   108   54  117 1    
   109   55   56 2    
   110   55   57 1    
   111   57   58 1    
   112   57   59 1    
   113   57  118 1    
   114   58  119 1    
   115   58  120 1    
   116   58  121 1    
   117   59   60 am   BACKBONE|DICT|INTERRES
   118   59  122 1    
   119   60   61 2    
   120   60   62 1    
   121   62   63 1    
   122   62   64 1    
   123   62  123 1    
   124   63  124 1    
   125   63  125 1    
   126   63  126 1    
   127   64   65 am   BACKBONE|DICT|INTERRES
   128   64  127 1    
   129   65   66 2    
@<TRIPOS>SUBSTRUCTURE
     1 UNK         1 GROUP             0       ****    0 ROOT    
