@<TRIPOS>MOLECULE
3R135
127   129    1
SMALL
USER_CHARGES


@<TRIPOS>ATOM
      1 CA        -84.3923   28.4016  -72.0415 C.3       0 UNK        -0.1998 
      2 C         -82.9942   28.2184  -72.6110 C.2       0 UNK         0.4909 
      3 O         -82.5844   28.9759  -73.4920 O.2       0 UNK        -0.5240 
      4 N         -82.2548   27.2153  -72.1218 N.am      1 UNK        -0.4739 
      5 CA        -80.8894   26.8880  -72.5461 C.3       1 UNK         0.0864 
      6 C6        -80.0876   26.1715  -71.4257 C.3       11 UNK        -0.0881 
      7 S7        -80.0990   26.9777  -69.7851 S.3       11 UNK        -0.2682 
      8 C8        -79.5829   28.6925  -70.1364 C.3       11 UNK         0.0289 
      9 C9        -78.3271   28.7995  -70.9957 C.ar      11 UNK        -0.0687 
     10 C10       -78.3275   29.6393  -72.1119 C.ar      11 UNK        -0.0823 
     11 C11       -77.1917   29.7631  -72.9161 C.ar      11 UNK        -0.0830 
     12 C12       -76.0411   29.0343  -72.5946 C.ar      11 UNK        -0.1021 
     13 C13       -76.0256   28.1898  -71.4793 C.ar      11 UNK        -0.0753 
     14 C14       -77.1673   28.0850  -70.6789 C.ar      11 UNK        -0.0933 
     15 C15       -74.7870   27.3747  -71.1396 C.3       11 UNK         0.0166 
     16 S16       -73.7413   28.2329  -69.9165 S.3       11 UNK        -0.2615 
     17 C17       -72.2706   28.6328  -70.9174 C.3       11 UNK        -0.0865 
     18 CA        -72.4572   29.9312  -71.7548 C.3       10 UNK         0.0862 
     19 C         -71.7140   31.1524  -71.1473 C.2       10 UNK         0.5551 
     20 N         -72.1778   31.6456  -70.0077 N.am      10 UNK        -0.7319 
     21 O         -70.7130   31.6360  -71.6739 O.2       10 UNK        -0.5018 
     22 N         -72.1218   29.6855  -73.1616 N.am      10 UNK        -0.4509 
     23 C         -72.6158   30.3635  -74.2025 C.2       10 UNK         0.4899 
     24 O         -73.3715   31.3298  -74.0935 O.2       10 UNK        -0.4839 
     25 CA        -72.2235   29.8780  -75.6138 C.3       9 UNK         0.0222 
     26 CB        -71.2310   30.8606  -76.2578 C.3       9 UNK        -0.1966 
     27 N         -71.6717   28.5156  -75.7010 N.am      9 UNK        -0.4218 
     28 C         -72.3003   27.3889  -75.3346 C.2       9 UNK         0.5020 
     29 O         -73.3723   27.3627  -74.7344 O.2       9 UNK        -0.5274 
     30 CA        -71.5934   26.0677  -75.6472 C.3       8 UNK         0.0270 
     31 CB        -70.9182   25.4956  -74.3874 C.3       8 UNK        -0.1976 
     32 N         -72.5715   25.1130  -76.1696 N.am      8 UNK        -0.4313 
     33 C         -72.2833   24.1285  -77.0317 C.2       8 UNK         0.5041 
     34 O         -71.1452   23.8959  -77.4433 O.2       8 UNK        -0.5577 
     35 CA        -73.4455   23.2549  -77.5373 C.3       7 UNK         0.0284 
     36 CB        -73.8395   22.2007  -76.4899 C.3       7 UNK        -0.1958 
     37 N         -74.6199   24.0347  -77.9323 N.am      7 UNK        -0.4454 
     38 C         -74.6804   24.8297  -79.0115 C.2       7 UNK         0.5089 
     39 O         -73.7662   24.9497  -79.8277 O.2       7 UNK        -0.5125 
     40 CA        -75.9737   25.6448  -79.2088 C.3       6 UNK         0.0408 
     41 CB        -77.0128   24.8490  -80.0135 C.3       6 UNK        -0.1791 
     42 N         -76.5547   26.0878  -77.9387 N.am      6 UNK        -0.4762 
     43 C         -75.9686   26.9758  -77.1209 C.2       6 UNK         0.5007 
     44 O         -74.9464   27.5916  -77.4229 O.2       6 UNK        -0.5032 
     45 CA        -76.6112   27.1804  -75.7313 C.3       5 UNK         0.0783 
     46 C46       -77.6245   28.3525  -75.7314 C.3       11 UNK        -0.0857 
     47 S47       -76.7414   29.9536  -75.6975 S.3       11 UNK        -0.2512 
     48 C48       -77.2263   30.7104  -74.1109 C.3       11 UNK         0.0225 
     49 N         -77.1832   25.9300  -75.2198 N.am      5 UNK        -0.4615 
     50 C         -76.4449   24.8971  -74.7827 C.2       4 UNK         0.5053 
     51 O         -75.2188   24.9229  -74.6963 O.2       4 UNK        -0.5105 
     52 CA        -77.1773   23.5863  -74.4496 C.3       4 UNK         0.0263 
     53 CB        -77.5345   23.5028  -72.9598 C.3       4 UNK        -0.1981 
     54 N         -78.3734   23.3934  -75.2722 N.am      4 UNK        -0.4224 
     55 C         -78.3157   23.0582  -76.5697 C.2       3 UNK         0.4895 
     56 O         -77.2619   22.8142  -77.1567 O.2       3 UNK        -0.5091 
     57 CA        -79.6324   23.0300  -77.3656 C.3       3 UNK         0.0250 
     58 CB        -80.2279   21.6135  -77.3648 C.3       3 UNK        -0.1996 
     59 N         -80.6420   23.9819  -76.8946 N.am      3 UNK        -0.4254 
     60 C         -80.4915   25.3129  -76.8343 C.2       2 UNK         0.5004 
     61 O         -79.4605   25.8972  -77.1690 O.2       2 UNK        -0.5226 
     62 CA        -81.6682   26.1320  -76.2679 C.3       2 UNK         0.0269 
     63 CB        -83.0030   25.3545  -76.2182 C.3       2 UNK        -0.1926 
     64 N         -81.3851   26.7038  -74.9442 N.am      2 UNK        -0.4687 
     65 C         -80.9177   26.0697  -73.8577 C.2       1 UNK         0.5165 
     66 O         -80.5637   24.8883  -73.8568 O.2       1 UNK        -0.5079 
     67 H67       -85.1354   28.2977  -72.8316 H         1 UNK         0.0900 
     68 H68       -84.4924   29.3959  -71.6073 H         1 UNK         0.0900 
     69 H69       -84.6157   27.6689  -71.2662 H         1 UNK         0.0900 
     70 H70       -82.6409   26.6144  -71.4073 H         1 UNK         0.2959 
     71 H71       -80.3676   27.8168  -72.7801 H         1 UNK         0.1079 
     72 H72       -80.4549   25.1539  -71.2789 H         1 UNK         0.0837 
     73 H73       -79.0447   26.0790  -71.7282 H         1 UNK         0.0837 
     74 H74       -80.4198   29.2109  -70.6071 H         1 UNK         0.0685 
     75 H75       -79.4028   29.2031  -69.1897 H         1 UNK         0.0685 
     76 H76       -79.2179   30.2044  -72.3532 H         1 UNK         0.1434 
     77 H77       -75.1607   29.1194  -73.2171 H         1 UNK         0.1329 
     78 H78       -77.1566   27.4379  -69.8124 H         1 UNK         0.1335 
     79 H79       -75.0844   26.4079  -70.7307 H         1 UNK         0.0680 
     80 H80       -74.2262   27.1536  -72.0493 H         1 UNK         0.0680 
     81 H81       -71.4103   28.7028  -70.2484 H         1 UNK         0.1032 
     82 H82       -72.0531   27.7717  -71.5518 H         1 UNK         0.1032 
     83 H83       -73.5146   30.2023  -71.7445 H         1 UNK         0.0461 
     84 H84       -72.9848   31.2377  -69.5608 H         1 UNK         0.3453 
     85 H85       -71.7103   32.4312  -69.5829 H         1 UNK         0.3453 
     86 H86       -71.4801   28.9311  -73.3487 H         1 UNK         0.2984 
     87 H87       -73.1398   29.8840  -76.2082 H         1 UNK         0.0554 
     88 H88       -71.6250   31.8781  -76.2475 H         1 UNK         0.0847 
     89 H89       -71.0346   30.6052  -77.2992 H         1 UNK         0.0847 
     90 H90       -70.2781   30.8766  -75.7272 H         1 UNK         0.0847 
     91 H91       -70.7737   28.4324  -76.1559 H         1 UNK         0.3141 
     92 H92       -70.8318   26.2551  -76.4074 H         1 UNK         0.0743 
     93 H93       -71.6482   25.2816  -73.6053 H         1 UNK         0.0784 
     94 H94       -70.3839   24.5714  -74.6081 H         1 UNK         0.0784 
     95 H95       -70.1932   26.1992  -73.9765 H         1 UNK         0.0784 
     96 H96       -73.5262   25.2482  -75.8418 H         1 UNK         0.3213 
     97 H97       -73.0939   22.7226  -78.4240 H         1 UNK         0.0855 
     98 H98       -74.1666   22.6559  -75.5558 H         1 UNK         0.0814 
     99 H99       -72.9928   21.5547  -76.2544 H         1 UNK         0.0814 
    100 H100      -74.6449   21.5612  -76.8520 H         1 UNK         0.0814 
    101 H101      -75.4519   23.9365  -77.3625 H         1 UNK         0.3105 
    102 H102      -75.7191   26.5369  -79.7851 H         1 UNK         0.0547 
    103 H103      -76.6303   24.6107  -81.0067 H         1 UNK         0.0837 
    104 H104      -77.2658   23.9049  -79.5330 H         1 UNK         0.0837 
    105 H105      -77.9339   25.4164  -80.1480 H         1 UNK         0.0837 
    106 H106      -77.4422   25.6844  -77.6583 H         1 UNK         0.3020 
    107 H107      -75.8079   27.4462  -75.0440 H         1 UNK         0.1245 
    108 H108      -78.2871   28.2845  -74.8684 H         1 UNK         0.0781 
    109 H109      -78.2770   28.3187  -76.6059 H         1 UNK         0.0781 
    110 H110      -78.2218   31.1396  -74.2343 H         1 UNK         0.0836 
    111 H111      -76.5575   31.5486  -73.9098 H         1 UNK         0.0836 
    112 H112      -78.1771   25.8038  -75.3544 H         1 UNK         0.3022 
    113 H113      -76.4845   22.7684  -74.6599 H         1 UNK         0.0747 
    114 H114      -77.9312   22.5204  -72.7037 H         1 UNK         0.0793 
    115 H115      -76.6559   23.6723  -72.3355 H         1 UNK         0.0793 
    116 H116      -78.2798   24.2431  -72.6840 H         1 UNK         0.0793 
    117 H117      -79.2679   23.6320  -74.8543 H         1 UNK         0.3047 
    118 H118      -79.3926   23.2977  -78.3965 H         1 UNK         0.0822 
    119 H119      -81.1056   21.5504  -78.0083 H         1 UNK         0.0807 
    120 H120      -80.5213   21.2991  -76.3623 H         1 UNK         0.0807 
    121 H121      -79.5043   20.8860  -77.7358 H         1 UNK         0.0807 
    122 H122      -81.5125   23.5904  -76.5653 H         1 UNK         0.2946 
    123 H123      -81.8001   26.9724  -76.9515 H         1 UNK         0.1144 
    124 H124      -83.8236   26.0128  -75.9323 H         1 UNK         0.0793 
    125 H125      -82.9789   24.5354  -75.4984 H         1 UNK         0.0793 
    126 H126      -83.2578   24.9384  -77.1941 H         1 UNK         0.0793 
    127 H127      -81.6726   27.6688  -74.8135 H         1 UNK         0.2896 
@<TRIPOS>BOND
     1    1    2 1    
     2    1   67 1    
     3    1   68 1    
     4    1   69 1    
     5    2    3 2    
     6    2    4 am   BACKBONE|DICT|INTERRES
     7    4    5 1    
     8    4   70 1    
     9    5    6 1    
    10    5   65 1    
    11    5   71 1    
    12    6    7 1    
    13    6   72 1    
    14    6   73 1    
    15    7    8 1    
    16    8    9 1    
    17    8   74 1    
    18    8   75 1    
    19    9   10 ar   
    20    9   14 ar   
    21   10   11 ar   
    22   10   76 1    
    23   11   12 ar   
    24   11   48 1    
    25   12   13 ar   
    26   12   77 1    
    27   13   14 ar   
    28   13   15 1    
    29   14   78 1    
    30   15   16 1    
    31   15   79 1    
    32   15   80 1    
    33   16   17 1    
    34   17   18 1    
    35   17   81 1    
    36   17   82 1    
    37   18   19 1    
    38   18   22 1    
    39   18   83 1    
    40   19   20 am   BACKBONE|DICT|INTERRES
    41   19   21 2    
    42   20   84 1    
    43   20   85 1    
    44   22   23 am   BACKBONE|DICT|INTERRES
    45   22   86 1    
    46   23   24 2    
    47   23   25 1    
    48   25   26 1    
    49   25   27 1    
    50   25   87 1    
    51   26   88 1    
    52   26   89 1    
    53   26   90 1    
    54   27   28 am   BACKBONE|DICT|INTERRES
    55   27   91 1    
    56   28   29 2    
    57   28   30 1    
    58   30   31 1    
    59   30   32 1    
    60   30   92 1    
    61   31   93 1    
    62   31   94 1    
    63   31   95 1    
    64   32   33 am   BACKBONE|DICT|INTERRES
    65   32   96 1    
    66   33   34 2    
    67   33   35 1    
    68   35   36 1    
    69   35   37 1    
    70   35   97 1    
    71   36   98 1    
    72   36   99 1    
    73   36  100 1    
    74   37   38 am   BACKBONE|DICT|INTERRES
    75   37  101 1    
    76   38   39 2    
    77   38   40 1    
    78   40   41 1    
    79   40   42 1    
    80   40  102 1    
    81   41  103 1    
    82   41  104 1    
    83   41  105 1    
    84   42   43 am   BACKBONE|DICT|INTERRES
    85   42  106 1    
    86   43   44 2    
    87   43   45 1    
    88   45   46 1    
    89   45   49 1    
    90   45  107 1    
    91   46   47 1    
    92   46  108 1    
    93   46  109 1    
    94   47   48 1    
    95   48  110 1    
    96   48  111 1    
    97   49   50 am   BACKBONE|DICT|INTERRES
    98   49  112 1    
    99   50   51 2    
   100   50   52 1    
   101   52   53 1    
   102   52   54 1    
   103   52  113 1    
   104   53  114 1    
   105   53  115 1    
   106   53  116 1    
   107   54   55 am   BACKBONE|DICT|INTERRES
   108   54  117 1    
   109   55   56 2    
   110   55   57 1    
   111   57   58 1    
   112   57   59 1    
   113   57  118 1    
   114   58  119 1    
   115   58  120 1    
   116   58  121 1    
   117   59   60 am   BACKBONE|DICT|INTERRES
   118   59  122 1    
   119   60   61 2    
   120   60   62 1    
   121   62   63 1    
   122   62   64 1    
   123   62  123 1    
   124   63  124 1    
   125   63  125 1    
   126   63  126 1    
   127   64   65 am   BACKBONE|DICT|INTERRES
   128   64  127 1    
   129   65   66 2    
@<TRIPOS>SUBSTRUCTURE
     1 UNK         1 GROUP             0       ****    0 ROOT    
