@<TRIPOS>MOLECULE
3R135
127   129    1
SMALL
USER_CHARGES


@<TRIPOS>ATOM
      1 CA        -81.9730   24.1090  -70.3889 C.3       0 UNK        -0.1998 
      2 C         -81.5297   24.9746  -71.5589 C.2       0 UNK         0.4909 
      3 O         -80.3821   24.8667  -71.9874 O.2       0 UNK        -0.5240 
      4 N         -82.4343   25.8253  -72.0656 N.am      1 UNK        -0.4739 
      5 CA        -82.2513   26.7347  -73.2099 C.3       1 UNK         0.0864 
      6 C6        -81.1184   27.7844  -72.9976 C.3       11 UNK        -0.0881 
      7 S7        -81.3759   28.7994  -71.5036 S.3       11 UNK        -0.2682 
      8 C8        -80.1665   30.1430  -71.7662 C.3       11 UNK         0.0289 
      9 C9        -78.7189   29.6653  -71.8631 C.ar      11 UNK        -0.0687 
     10 C10       -78.2217   28.6877  -70.9947 C.ar      11 UNK        -0.0823 
     11 C11       -76.8988   28.2483  -71.0948 C.ar      11 UNK        -0.0830 
     12 C12       -76.0573   28.8154  -72.0563 C.ar      11 UNK        -0.1021 
     13 C13       -76.5325   29.8093  -72.9169 C.ar      11 UNK        -0.0753 
     14 C14       -77.8642   30.2251  -72.8184 C.ar      11 UNK        -0.0933 
     15 C15       -75.6212   30.4202  -73.9709 C.3       11 UNK         0.0166 
     16 S16       -74.8333   31.9534  -73.3882 S.3       11 UNK        -0.2615 
     17 C17       -73.3950   31.3108  -72.4640 C.3       11 UNK        -0.0865 
     18 CA        -72.0711   31.4489  -73.2597 C.3       10 UNK         0.0862 
     19 C         -70.8609   31.0271  -72.3855 C.2       10 UNK         0.5551 
     20 N         -70.0997   31.9825  -71.8704 N.am      10 UNK        -0.7319 
     21 O         -70.6406   29.8446  -72.1329 O.2       10 UNK        -0.5018 
     22 N         -72.1158   30.6905  -74.5169 N.am      10 UNK        -0.4509 
     23 C         -71.2803   30.8590  -75.5484 C.2       10 UNK         0.4899 
     24 O         -70.3997   31.7204  -75.5849 O.2       10 UNK        -0.4839 
     25 CA        -71.4868   29.9057  -76.7428 C.3       9 UNK         0.0222 
     26 CB        -70.3563   29.9893  -77.7908 C.3       9 UNK        -0.1966 
     27 N         -71.7204   28.5161  -76.3278 N.am      9 UNK        -0.4218 
     28 C         -70.8815   27.7231  -75.6372 C.2       9 UNK         0.5020 
     29 O         -69.7516   28.0616  -75.2826 O.2       9 UNK        -0.5274 
     30 CA        -71.3757   26.3118  -75.2613 C.3       8 UNK         0.0270 
     31 CB        -71.7117   26.2510  -73.7615 C.3       8 UNK        -0.1976 
     32 N         -72.5396   25.8739  -76.0376 N.am      8 UNK        -0.4313 
     33 C         -72.4935   25.5098  -77.3297 C.2       8 UNK         0.5041 
     34 O         -71.4440   25.4083  -77.9661 O.2       8 UNK        -0.5577 
     35 CA        -73.8277   25.2353  -78.0551 C.3       7 UNK         0.0284 
     36 CB        -74.0541   23.7229  -78.2136 C.3       7 UNK        -0.1958 
     37 N         -75.0030   25.8228  -77.4080 N.am      7 UNK        -0.4454 
     38 C         -75.2042   27.1271  -77.1725 C.2       7 UNK         0.5089 
     39 O         -74.4331   28.0176  -77.5312 O.2       7 UNK        -0.5125 
     40 CA        -76.4319   27.4888  -76.3181 C.3       6 UNK         0.0408 
     41 CB        -77.5984   27.9255  -77.2157 C.3       6 UNK        -0.1791 
     42 N         -76.8630   26.4202  -75.4016 N.am      6 UNK        -0.4762 
     43 C         -76.0916   25.9046  -74.4277 C.2       6 UNK         0.5007 
     44 O         -74.9246   26.2609  -74.2589 O.2       6 UNK        -0.5032 
     45 CA        -76.6473   24.7668  -73.5475 C.3       5 UNK         0.0783 
     46 C46       -77.1336   25.2455  -72.1564 C.3       11 UNK        -0.0857 
     47 S47       -75.7501   25.6937  -71.0486 S.3       11 UNK        -0.2512 
     48 C48       -76.3936   27.1530  -70.1639 C.3       11 UNK         0.0225 
     49 N         -77.6591   23.9619  -74.2393 N.am      5 UNK        -0.4615 
     50 C         -77.7925   22.6379  -74.0710 C.2       4 UNK         0.5053 
     51 O         -77.0912   21.9753  -73.3051 O.2       4 UNK        -0.5105 
     52 CA        -78.8718   21.9052  -74.8927 C.3       4 UNK         0.0263 
     53 CB        -80.1406   21.7044  -74.0485 C.3       4 UNK        -0.1981 
     54 N         -79.2304   22.5814  -76.1395 N.am      4 UNK        -0.4224 
     55 C         -78.4008   22.8090  -77.1675 C.2       3 UNK         0.4895 
     56 O         -77.2519   22.3707  -77.2271 O.2       3 UNK        -0.5091 
     57 CA        -78.9146   23.7041  -78.3135 C.3       3 UNK         0.0250 
     58 CB        -79.1837   22.8606  -79.5705 C.3       3 UNK        -0.1996 
     59 N         -80.1078   24.5123  -78.0181 N.am      3 UNK        -0.4254 
     60 C         -80.2437   25.3918  -77.0153 C.2       2 UNK         0.5004 
     61 O         -79.3853   25.5616  -76.1448 O.2       2 UNK        -0.5226 
     62 CA        -81.5357   26.2331  -76.9846 C.3       2 UNK         0.0269 
     63 CB        -82.7586   25.5238  -77.6114 C.3       2 UNK        -0.1926 
     64 N         -81.8381   26.7164  -75.6310 N.am      2 UNK        -0.4687 
     65 C         -82.1110   25.9694  -74.5495 C.2       1 UNK         0.5165 
     66 O         -82.2822   24.7474  -74.5967 O.2       1 UNK        -0.5079 
     67 H67       -81.3362   24.2944  -69.5243 H         1 UNK         0.0900 
     68 H68       -83.0047   24.3086  -70.0999 H         1 UNK         0.0900 
     69 H69       -81.8917   23.0549  -70.6528 H         1 UNK         0.0900 
     70 H70       -83.3623   25.8353  -71.6668 H         1 UNK         0.2959 
     71 H71       -83.1908   27.2830  -73.2963 H         1 UNK         0.1079 
     72 H72       -81.0551   28.4726  -73.8413 H         1 UNK         0.0837 
     73 H73       -80.1433   27.2981  -72.9329 H         1 UNK         0.0837 
     74 H74       -80.4505   30.6920  -72.6654 H         1 UNK         0.0685 
     75 H75       -80.2436   30.8479  -70.9375 H         1 UNK         0.0685 
     76 H76       -78.8742   28.2551  -70.2490 H         1 UNK         0.1434 
     77 H77       -75.0380   28.4652  -72.1432 H         1 UNK         0.1329 
     78 H78       -78.2329   30.9905  -73.4876 H         1 UNK         0.1335 
     79 H79       -74.8588   29.7037  -74.2789 H         1 UNK         0.0680 
     80 H80       -76.2015   30.6495  -74.8660 H         1 UNK         0.0680 
     81 H81       -73.3324   31.8750  -71.5315 H         1 UNK         0.1032 
     82 H82       -73.5638   30.2742  -72.1708 H         1 UNK         0.1032 
     83 H83       -71.9527   32.5031  -73.5200 H         1 UNK         0.0461 
     84 H84       -69.3196   31.7260  -71.2857 H         1 UNK         0.3453 
     85 H85       -70.2793   32.9550  -72.0676 H         1 UNK         0.3453 
     86 H86       -72.7830   29.9370  -74.5584 H         1 UNK         0.2984 
     87 H87       -72.4068   30.2301  -77.2313 H         1 UNK         0.0554 
     88 H88       -70.5427   29.3181  -78.6292 H         1 UNK         0.0847 
     89 H89       -69.3863   29.7322  -77.3644 H         1 UNK         0.0847 
     90 H90       -70.2741   30.9983  -78.1965 H         1 UNK         0.0847 
     91 H91       -72.6228   28.1376  -76.5994 H         1 UNK         0.3141 
     92 H92       -70.5565   25.6156  -75.4536 H         1 UNK         0.0743 
     93 H93       -72.4825   26.9733  -73.4898 H         1 UNK         0.0784 
     94 H94       -72.0611   25.2607  -73.4688 H         1 UNK         0.0784 
     95 H95       -70.8326   26.4777  -73.1565 H         1 UNK         0.0784 
     96 H96       -73.4392   25.9339  -75.5681 H         1 UNK         0.3213 
     97 H97       -73.7474   25.6781  -79.0502 H         1 UNK         0.0855 
     98 H98       -74.1730   23.2288  -77.2483 H         1 UNK         0.0814 
     99 H99       -73.2104   23.2515  -78.7198 H         1 UNK         0.0814 
    100 H100      -74.9439   23.5131  -78.8079 H         1 UNK         0.0814 
    101 H101      -75.6897   25.1757  -77.0486 H         1 UNK         0.3105 
    102 H102      -76.1528   28.3409  -75.7012 H         1 UNK         0.0547 
    103 H103      -77.3155   28.7800  -77.8319 H         1 UNK         0.0837 
    104 H104      -77.9074   27.1278  -77.8914 H         1 UNK         0.0837 
    105 H105      -78.4640   28.2259  -76.6251 H         1 UNK         0.0837 
    106 H106      -77.8201   26.0943  -75.5286 H         1 UNK         0.3020 
    107 H107      -75.7839   24.1176  -73.3809 H         1 UNK         0.1245 
    108 H108      -77.6826   24.4455  -71.6575 H         1 UNK         0.0781 
    109 H109      -77.8454   26.0646  -72.2634 H         1 UNK         0.0781 
    110 H110      -75.6018   27.5609  -69.5345 H         1 UNK         0.0836 
    111 H111      -77.1835   26.8236  -69.4870 H         1 UNK         0.0836 
    112 H112      -78.2917   24.4443  -74.8688 H         1 UNK         0.3022 
    113 H113      -78.4723   20.9227  -75.1529 H         1 UNK         0.0747 
    114 H114      -80.8864   21.1152  -74.5822 H         1 UNK         0.0793 
    115 H115      -79.9138   21.1770  -73.1209 H         1 UNK         0.0793 
    116 H116      -80.5959   22.6578  -73.7766 H         1 UNK         0.0793 
    117 H117      -80.1454   23.0079  -76.1709 H         1 UNK         0.3047 
    118 H118      -78.1079   24.4037  -78.5420 H         1 UNK         0.0822 
    119 H119      -79.4263   23.4888  -80.4278 H         1 UNK         0.0807 
    120 H120      -80.0088   22.1635  -79.4184 H         1 UNK         0.0807 
    121 H121      -78.3065   22.2720  -79.8437 H         1 UNK         0.0807 
    122 H122      -80.8706   24.4270  -78.6743 H         1 UNK         0.2946 
    123 H123      -81.3249   27.1212  -77.5828 H         1 UNK         0.1144 
    124 H124      -83.6637   26.1181  -77.4857 H         1 UNK         0.0793 
    125 H125      -82.9412   24.5464  -77.1631 H         1 UNK         0.0793 
    126 H126      -82.6285   25.3756  -78.6839 H         1 UNK         0.0793 
    127 H127      -81.7181   27.7104  -75.4985 H         1 UNK         0.2896 
@<TRIPOS>BOND
     1    1    2 1    
     2    1   67 1    
     3    1   68 1    
     4    1   69 1    
     5    2    3 2    
     6    2    4 am   BACKBONE|DICT|INTERRES
     7    4    5 1    
     8    4   70 1    
     9    5    6 1    
    10    5   65 1    
    11    5   71 1    
    12    6    7 1    
    13    6   72 1    
    14    6   73 1    
    15    7    8 1    
    16    8    9 1    
    17    8   74 1    
    18    8   75 1    
    19    9   10 ar   
    20    9   14 ar   
    21   10   11 ar   
    22   10   76 1    
    23   11   12 ar   
    24   11   48 1    
    25   12   13 ar   
    26   12   77 1    
    27   13   14 ar   
    28   13   15 1    
    29   14   78 1    
    30   15   16 1    
    31   15   79 1    
    32   15   80 1    
    33   16   17 1    
    34   17   18 1    
    35   17   81 1    
    36   17   82 1    
    37   18   19 1    
    38   18   22 1    
    39   18   83 1    
    40   19   20 am   BACKBONE|DICT|INTERRES
    41   19   21 2    
    42   20   84 1    
    43   20   85 1    
    44   22   23 am   BACKBONE|DICT|INTERRES
    45   22   86 1    
    46   23   24 2    
    47   23   25 1    
    48   25   26 1    
    49   25   27 1    
    50   25   87 1    
    51   26   88 1    
    52   26   89 1    
    53   26   90 1    
    54   27   28 am   BACKBONE|DICT|INTERRES
    55   27   91 1    
    56   28   29 2    
    57   28   30 1    
    58   30   31 1    
    59   30   32 1    
    60   30   92 1    
    61   31   93 1    
    62   31   94 1    
    63   31   95 1    
    64   32   33 am   BACKBONE|DICT|INTERRES
    65   32   96 1    
    66   33   34 2    
    67   33   35 1    
    68   35   36 1    
    69   35   37 1    
    70   35   97 1    
    71   36   98 1    
    72   36   99 1    
    73   36  100 1    
    74   37   38 am   BACKBONE|DICT|INTERRES
    75   37  101 1    
    76   38   39 2    
    77   38   40 1    
    78   40   41 1    
    79   40   42 1    
    80   40  102 1    
    81   41  103 1    
    82   41  104 1    
    83   41  105 1    
    84   42   43 am   BACKBONE|DICT|INTERRES
    85   42  106 1    
    86   43   44 2    
    87   43   45 1    
    88   45   46 1    
    89   45   49 1    
    90   45  107 1    
    91   46   47 1    
    92   46  108 1    
    93   46  109 1    
    94   47   48 1    
    95   48  110 1    
    96   48  111 1    
    97   49   50 am   BACKBONE|DICT|INTERRES
    98   49  112 1    
    99   50   51 2    
   100   50   52 1    
   101   52   53 1    
   102   52   54 1    
   103   52  113 1    
   104   53  114 1    
   105   53  115 1    
   106   53  116 1    
   107   54   55 am   BACKBONE|DICT|INTERRES
   108   54  117 1    
   109   55   56 2    
   110   55   57 1    
   111   57   58 1    
   112   57   59 1    
   113   57  118 1    
   114   58  119 1    
   115   58  120 1    
   116   58  121 1    
   117   59   60 am   BACKBONE|DICT|INTERRES
   118   59  122 1    
   119   60   61 2    
   120   60   62 1    
   121   62   63 1    
   122   62   64 1    
   123   62  123 1    
   124   63  124 1    
   125   63  125 1    
   126   63  126 1    
   127   64   65 am   BACKBONE|DICT|INTERRES
   128   64  127 1    
   129   65   66 2    
@<TRIPOS>SUBSTRUCTURE
     1 UNK         1 GROUP             0       ****    0 ROOT    
