@<TRIPOS>MOLECULE
3R135
127   129    1
SMALL
USER_CHARGES


@<TRIPOS>ATOM
      1 CA        -83.2862   27.3316  -70.0983 C.3       0 UNK        -0.1998 
      2 C         -83.7115   27.2014  -71.5531 C.2       0 UNK         0.4909 
      3 O         -84.7165   26.5522  -71.8434 O.2       0 UNK        -0.5240 
      4 N         -82.9516   27.8138  -72.4705 N.am      1 UNK        -0.4739 
      5 CA        -83.1863   27.7723  -73.9205 C.3       1 UNK         0.0864 
      6 C6        -82.4695   28.9442  -74.6452 C.3       11 UNK        -0.0881 
      7 S7        -80.6440   28.8345  -74.6325 S.3       11 UNK        -0.2682 
      8 C8        -80.2098   29.8961  -73.2248 C.3       11 UNK         0.0289 
      9 C9        -78.8355   29.5375  -72.6824 C.ar      11 UNK        -0.0687 
     10 C10       -78.6793   28.4221  -71.8530 C.ar      11 UNK        -0.0823 
     11 C11       -77.4294   28.1078  -71.3117 C.ar      11 UNK        -0.0830 
     12 C12       -76.3309   28.9182  -71.6152 C.ar      11 UNK        -0.1021 
     13 C13       -76.4631   30.0173  -72.4714 C.ar      11 UNK        -0.0753 
     14 C14       -77.7246   30.3270  -72.9917 C.ar      11 UNK        -0.0933 
     15 C15       -75.2505   30.8826  -72.8027 C.3       11 UNK         0.0166 
     16 S16       -75.0339   31.1177  -74.5977 S.3       11 UNK        -0.2615 
     17 C17       -73.3650   31.8548  -74.6861 C.3       11 UNK        -0.0865 
     18 CA        -72.3409   30.9144  -75.3896 C.3       10 UNK         0.0862 
     19 C         -70.9918   31.6216  -75.7264 C.2       10 UNK         0.5551 
     20 N         -69.8652   30.9187  -75.7414 N.am      10 UNK        -0.7319 
     21 O         -70.9652   32.8167  -76.0112 O.2       10 UNK        -0.5018 
     22 N         -72.2051   29.6082  -74.7182 N.am      10 UNK        -0.4509 
     23 C         -71.6989   29.4048  -73.4939 C.2       10 UNK         0.4899 
     24 O         -71.2631   30.3043  -72.7747 O.2       10 UNK        -0.4839 
     25 CA        -71.6799   27.9657  -72.9551 C.3       9 UNK         0.0222 
     26 CB        -72.8374   27.7517  -71.9706 C.3       9 UNK        -0.1966 
     27 N         -71.7528   26.9312  -73.9867 N.am      9 UNK        -0.4218 
     28 C         -70.7318   26.5467  -74.7626 C.2       9 UNK         0.5020 
     29 O         -69.6346   27.1062  -74.7792 O.2       9 UNK        -0.5274 
     30 CA        -70.9699   25.3187  -75.6524 C.3       8 UNK         0.0270 
     31 CB        -71.0217   24.0353  -74.8054 C.3       8 UNK        -0.1976 
     32 N         -72.2152   25.4476  -76.4081 N.am      8 UNK        -0.4313 
     33 C         -72.2866   25.7617  -77.7082 C.2       8 UNK         0.5041 
     34 O         -71.3011   25.9358  -78.4270 O.2       8 UNK        -0.5577 
     35 CA        -73.6899   25.9040  -78.3289 C.3       7 UNK         0.0284 
     36 CB        -74.0815   24.6077  -79.0567 C.3       7 UNK        -0.1958 
     37 N         -74.7422   26.2610  -77.3714 N.am      7 UNK        -0.4454 
     38 C         -74.7725   27.4001  -76.6655 C.2       7 UNK         0.5089 
     39 O         -73.9197   28.2812  -76.7633 O.2       7 UNK        -0.5125 
     40 CA        -75.9056   27.5665  -75.6388 C.3       6 UNK         0.0408 
     41 CB        -77.1437   28.1922  -76.2929 C.3       6 UNK        -0.1791 
     42 N         -76.2887   26.3381  -74.9381 N.am      6 UNK        -0.4762 
     43 C         -75.4560   25.5702  -74.2197 C.2       6 UNK         0.5007 
     44 O         -74.2339   25.7206  -74.1834 O.2       6 UNK        -0.5032 
     45 CA        -76.0975   24.4054  -73.4507 C.3       5 UNK         0.0783 
     46 C46       -77.0341   24.8908  -72.3143 C.3       11 UNK        -0.0857 
     47 S47       -76.1119   25.6588  -70.9394 S.3       11 UNK        -0.2512 
     48 C48       -77.2806   26.9305  -70.3528 C.3       11 UNK         0.0225 
     49 N         -76.7808   23.5330  -74.4044 N.am      5 UNK        -0.4615 
     50 C         -76.1488   22.6529  -75.1956 C.2       4 UNK         0.5053 
     51 O         -74.9533   22.3789  -75.0918 O.2       4 UNK        -0.5105 
     52 CA        -76.9727   21.9688  -76.3028 C.3       4 UNK         0.0263 
     53 CB        -77.4681   20.5930  -75.8292 C.3       4 UNK        -0.1981 
     54 N         -78.1161   22.7607  -76.7622 N.am      4 UNK        -0.4224 
     55 C         -78.0345   23.9498  -77.3775 C.2       3 UNK         0.4895 
     56 O         -76.9752   24.4961  -77.6799 O.2       3 UNK        -0.5091 
     57 CA        -79.3614   24.6815  -77.6436 C.3       3 UNK         0.0250 
     58 CB        -79.9236   24.2960  -79.0206 C.3       3 UNK        -0.1996 
     59 N         -80.3778   24.4457  -76.6106 N.am      3 UNK        -0.4254 
     60 C         -80.2234   24.7443  -75.3133 C.2       2 UNK         0.5004 
     61 O         -79.1998   25.2482  -74.8433 O.2       2 UNK        -0.5226 
     62 CA        -81.3874   24.3939  -74.3766 C.3       2 UNK         0.0269 
     63 CB        -80.9028   23.5360  -73.1948 C.3       2 UNK        -0.1926 
     64 N         -81.9822   25.6232  -73.8652 N.am      2 UNK        -0.4687 
     65 C         -82.8304   26.4046  -74.5491 C.2       1 UNK         0.5165 
     66 O         -83.3133   26.0926  -75.6391 O.2       1 UNK        -0.5079 
     67 H67       -84.0815   27.7956  -69.5155 H         1 UNK         0.0900 
     68 H68       -82.3874   27.9379  -69.9874 H         1 UNK         0.0900 
     69 H69       -83.0852   26.3470  -69.6769 H         1 UNK         0.0900 
     70 H70       -82.1407   28.3366  -72.1767 H         1 UNK         0.2959 
     71 H71       -84.2592   27.9048  -74.0789 H         1 UNK         0.1079 
     72 H72       -82.7902   28.9814  -75.6881 H         1 UNK         0.0837 
     73 H73       -82.7802   29.8981  -74.2158 H         1 UNK         0.0837 
     74 H74       -80.2434   30.9399  -73.5407 H         1 UNK         0.0685 
     75 H75       -80.9471   29.7939  -72.4286 H         1 UNK         0.0685 
     76 H76       -79.5376   27.8089  -71.6168 H         1 UNK         0.1434 
     77 H77       -75.3740   28.6916  -71.1698 H         1 UNK         0.1329 
     78 H78       -77.8398   31.1857  -73.6388 H         1 UNK         0.1335 
     79 H79       -74.3434   30.4359  -72.3941 H         1 UNK         0.0680 
     80 H80       -75.3633   31.8561  -72.3240 H         1 UNK         0.0680 
     81 H81       -73.4624   32.7916  -75.2374 H         1 UNK         0.1032 
     82 H82       -73.0177   32.1323  -73.6899 H         1 UNK         0.1032 
     83 H83       -72.7569   30.6813  -76.3699 H         1 UNK         0.0461 
     84 H84       -68.9974   31.3770  -75.9703 H         1 UNK         0.3453 
     85 H85       -69.8759   29.9365  -75.5128 H         1 UNK         0.3453 
     86 H86       -72.5688   28.8230  -75.2453 H         1 UNK         0.2984 
     87 H87       -70.7438   27.8367  -72.4077 H         1 UNK         0.0554 
     88 H88       -72.7763   26.7762  -71.4877 H         1 UNK         0.0847 
     89 H89       -73.7972   27.8080  -72.4835 H         1 UNK         0.0847 
     90 H90       -72.8339   28.5059  -71.1825 H         1 UNK         0.0847 
     91 H91       -72.6379   26.4280  -74.0502 H         1 UNK         0.3141 
     92 H92       -70.1190   25.2325  -76.3317 H         1 UNK         0.0743 
     93 H93       -71.8655   24.0349  -74.1137 H         1 UNK         0.0784 
     94 H94       -71.1112   23.1512  -75.4368 H         1 UNK         0.0784 
     95 H95       -70.1125   23.9203  -74.2137 H         1 UNK         0.0784 
     96 H96       -73.0788   25.3632  -75.8828 H         1 UNK         0.3213 
     97 H97       -73.6339   26.7065  -79.0674 H         1 UNK         0.0855 
     98 H98       -74.2125   23.7792  -78.3592 H         1 UNK         0.0814 
     99 H99       -73.3159   24.3135  -79.7760 H         1 UNK         0.0814 
    100 H100      -75.0128   24.7301  -79.6100 H         1 UNK         0.0814 
    101 H101      -75.5137   25.6032  -77.2738 H         1 UNK         0.3105 
    102 H102      -75.5454   28.2545  -74.8727 H         1 UNK         0.0547 
    103 H103      -76.8908   29.1303  -76.7887 H         1 UNK         0.0837 
    104 H104      -77.5850   27.5314  -77.0390 H         1 UNK         0.0837 
    105 H105      -77.9044   28.4184  -75.5472 H         1 UNK         0.0837 
    106 H106      -77.2775   26.1074  -74.9327 H         1 UNK         0.3020 
    107 H107      -75.2873   23.8344  -72.9900 H         1 UNK         0.1245 
    108 H108      -77.5865   24.0446  -71.9034 H         1 UNK         0.0781 
    109 H109      -77.7859   25.5874  -72.6877 H         1 UNK         0.0781 
    110 H110      -76.9271   27.3086  -69.3926 H         1 UNK         0.0836 
    111 H111      -78.2452   26.4602  -70.1556 H         1 UNK         0.0836 
    112 H112      -77.7494   23.7599  -74.5938 H         1 UNK         0.3022 
    113 H113      -76.3085   21.8204  -77.1571 H         1 UNK         0.0747 
    114 H114      -77.9797   20.0575  -76.6293 H         1 UNK         0.0793 
    115 H115      -76.6340   19.9682  -75.5064 H         1 UNK         0.0793 
    116 H116      -78.1559   20.6787  -74.9868 H         1 UNK         0.0793 
    117 H117      -79.0341   22.3932  -76.5595 H         1 UNK         0.3047 
    118 H118      -79.1464   25.7518  -77.6502 H         1 UNK         0.0822 
    119 H119      -80.8118   24.8793  -79.2643 H         1 UNK         0.0807 
    120 H120      -80.1906   23.2395  -79.0687 H         1 UNK         0.0807 
    121 H121      -79.1904   24.4831  -79.8068 H         1 UNK         0.0807 
    122 H122      -81.2570   24.0571  -76.9214 H         1 UNK         0.2946 
    123 H123      -82.1430   23.8272  -74.9257 H         1 UNK         0.1144 
    124 H124      -80.4396   22.6129  -73.5457 H         1 UNK         0.0793 
    125 H125      -81.7318   23.2553  -72.5449 H         1 UNK         0.0793 
    126 H126      -80.1649   24.0602  -72.5860 H         1 UNK         0.0793 
    127 H127      -81.6077   25.9813  -72.9997 H         1 UNK         0.2896 
@<TRIPOS>BOND
     1    1    2 1    
     2    1   67 1    
     3    1   68 1    
     4    1   69 1    
     5    2    3 2    
     6    2    4 am   BACKBONE|DICT|INTERRES
     7    4    5 1    
     8    4   70 1    
     9    5    6 1    
    10    5   65 1    
    11    5   71 1    
    12    6    7 1    
    13    6   72 1    
    14    6   73 1    
    15    7    8 1    
    16    8    9 1    
    17    8   74 1    
    18    8   75 1    
    19    9   10 ar   
    20    9   14 ar   
    21   10   11 ar   
    22   10   76 1    
    23   11   12 ar   
    24   11   48 1    
    25   12   13 ar   
    26   12   77 1    
    27   13   14 ar   
    28   13   15 1    
    29   14   78 1    
    30   15   16 1    
    31   15   79 1    
    32   15   80 1    
    33   16   17 1    
    34   17   18 1    
    35   17   81 1    
    36   17   82 1    
    37   18   19 1    
    38   18   22 1    
    39   18   83 1    
    40   19   20 am   BACKBONE|DICT|INTERRES
    41   19   21 2    
    42   20   84 1    
    43   20   85 1    
    44   22   23 am   BACKBONE|DICT|INTERRES
    45   22   86 1    
    46   23   24 2    
    47   23   25 1    
    48   25   26 1    
    49   25   27 1    
    50   25   87 1    
    51   26   88 1    
    52   26   89 1    
    53   26   90 1    
    54   27   28 am   BACKBONE|DICT|INTERRES
    55   27   91 1    
    56   28   29 2    
    57   28   30 1    
    58   30   31 1    
    59   30   32 1    
    60   30   92 1    
    61   31   93 1    
    62   31   94 1    
    63   31   95 1    
    64   32   33 am   BACKBONE|DICT|INTERRES
    65   32   96 1    
    66   33   34 2    
    67   33   35 1    
    68   35   36 1    
    69   35   37 1    
    70   35   97 1    
    71   36   98 1    
    72   36   99 1    
    73   36  100 1    
    74   37   38 am   BACKBONE|DICT|INTERRES
    75   37  101 1    
    76   38   39 2    
    77   38   40 1    
    78   40   41 1    
    79   40   42 1    
    80   40  102 1    
    81   41  103 1    
    82   41  104 1    
    83   41  105 1    
    84   42   43 am   BACKBONE|DICT|INTERRES
    85   42  106 1    
    86   43   44 2    
    87   43   45 1    
    88   45   46 1    
    89   45   49 1    
    90   45  107 1    
    91   46   47 1    
    92   46  108 1    
    93   46  109 1    
    94   47   48 1    
    95   48  110 1    
    96   48  111 1    
    97   49   50 am   BACKBONE|DICT|INTERRES
    98   49  112 1    
    99   50   51 2    
   100   50   52 1    
   101   52   53 1    
   102   52   54 1    
   103   52  113 1    
   104   53  114 1    
   105   53  115 1    
   106   53  116 1    
   107   54   55 am   BACKBONE|DICT|INTERRES
   108   54  117 1    
   109   55   56 2    
   110   55   57 1    
   111   57   58 1    
   112   57   59 1    
   113   57  118 1    
   114   58  119 1    
   115   58  120 1    
   116   58  121 1    
   117   59   60 am   BACKBONE|DICT|INTERRES
   118   59  122 1    
   119   60   61 2    
   120   60   62 1    
   121   62   63 1    
   122   62   64 1    
   123   62  123 1    
   124   63  124 1    
   125   63  125 1    
   126   63  126 1    
   127   64   65 am   BACKBONE|DICT|INTERRES
   128   64  127 1    
   129   65   66 2    
@<TRIPOS>SUBSTRUCTURE
     1 UNK         1 GROUP             0       ****    0 ROOT    
