@<TRIPOS>MOLECULE
3R135
127   129    1
SMALL
USER_CHARGES


@<TRIPOS>ATOM
      1 CA        -82.4022   30.5284  -76.3195 C.3       0 UNK        -0.1998 
      2 C         -81.6885   29.4659  -75.4972 C.2       0 UNK         0.4909 
      3 O         -80.7926   28.7958  -76.0104 O.2       0 UNK        -0.5240 
      4 N         -82.0749   29.3139  -74.2243 N.am      1 UNK        -0.4739 
      5 CA        -81.5299   28.3262  -73.2857 C.3       1 UNK         0.0864 
      6 C6        -81.9842   28.6027  -71.8306 C.3       11 UNK        -0.0881 
      7 S7        -81.5339   30.2833  -71.2717 S.3       11 UNK        -0.2682 
      8 C8        -80.4191   29.9537  -69.8712 C.3       11 UNK         0.0289 
      9 C9        -79.0923   29.3474  -70.3071 C.ar      11 UNK        -0.0687 
     10 C10       -78.7933   28.0159  -70.0039 C.ar      11 UNK        -0.0823 
     11 C11       -77.5581   27.4611  -70.3530 C.ar      11 UNK        -0.0830 
     12 C12       -76.6202   28.2586  -71.0220 C.ar      11 UNK        -0.1021 
     13 C13       -76.9076   29.5890  -71.3365 C.ar      11 UNK        -0.0753 
     14 C14       -78.1444   30.1300  -70.9735 C.ar      11 UNK        -0.0933 
     15 C15       -75.8744   30.4424  -72.0554 C.3       11 UNK         0.0166 
     16 S16       -76.2644   30.5727  -73.8231 S.3       11 UNK        -0.2615 
     17 C17       -74.7875   31.4351  -74.4604 C.3       11 UNK        -0.0865 
     18 CA        -73.9493   30.5044  -75.3799 C.3       10 UNK         0.0862 
     19 C         -72.9669   31.2546  -76.3210 C.2       10 UNK         0.5551 
     20 N         -72.4216   30.5557  -77.3075 N.am      10 UNK        -0.7319 
     21 O         -72.7020   32.4454  -76.1705 O.2       10 UNK        -0.5018 
     22 N         -73.2976   29.3936  -74.6572 N.am      10 UNK        -0.4509 
     23 C         -72.2689   29.5168  -73.8057 C.2       10 UNK         0.4899 
     24 O         -71.7779   30.5971  -73.4769 O.2       10 UNK        -0.4839 
     25 CA        -71.6742   28.2384  -73.1970 C.3       9 UNK         0.0222 
     26 CB        -72.3024   27.9733  -71.8181 C.3       9 UNK        -0.1966 
     27 N         -71.8592   27.0484  -74.0328 N.am      9 UNK        -0.4218 
     28 C         -70.8676   26.3175  -74.5585 C.2       9 UNK         0.5020 
     29 O         -69.6811   26.6494  -74.5373 O.2       9 UNK        -0.5274 
     30 CA        -71.2487   24.9520  -75.1572 C.3       8 UNK         0.0270 
     31 CB        -71.6436   23.9657  -74.0446 C.3       8 UNK        -0.1976 
     32 N         -72.3171   25.0178  -76.1553 N.am      8 UNK        -0.4313 
     33 C         -72.1582   25.4738  -77.4055 C.2       8 UNK         0.5041 
     34 O         -71.0962   25.9163  -77.8452 O.2       8 UNK        -0.5577 
     35 CA        -73.3896   25.4207  -78.3291 C.3       7 UNK         0.0284 
     36 CB        -73.5797   24.0123  -78.9153 C.3       7 UNK        -0.1958 
     37 N         -74.6168   25.8475  -77.6548 N.am      7 UNK        -0.4454 
     38 C         -74.8394   27.1030  -77.2438 C.2       7 UNK         0.5089 
     39 O         -74.0730   28.0381  -77.4743 O.2       7 UNK        -0.5125 
     40 CA        -76.0993   27.3486  -76.3945 C.3       6 UNK         0.0408 
     41 CB        -77.3295   27.5740  -77.2851 C.3       6 UNK        -0.1791 
     42 N         -76.3616   26.2636  -75.4502 N.am      6 UNK        -0.4762 
     43 C         -75.5587   25.9114  -74.4372 C.2       6 UNK         0.5007 
     44 O         -74.5267   26.5153  -74.1504 O.2       6 UNK        -0.5032 
     45 CA        -75.9280   24.6284  -73.6676 C.3       5 UNK         0.0783 
     46 C46       -76.8973   24.8975  -72.4901 C.3       11 UNK        -0.0857 
     47 S47       -75.9902   25.1705  -70.9358 S.3       11 UNK        -0.2512 
     48 C48       -77.2577   26.0205  -69.9372 C.3       11 UNK         0.0225 
     49 N         -76.4406   23.5971  -74.5702 N.am      5 UNK        -0.4615 
     50 C         -75.6862   22.9118  -75.4377 C.2       4 UNK         0.5053 
     51 O         -74.4716   23.0693  -75.5571 O.2       4 UNK        -0.5105 
     52 CA        -76.4173   21.9076  -76.3438 C.3       4 UNK         0.0263 
     53 CB        -76.5733   20.5539  -75.6334 C.3       4 UNK        -0.1981 
     54 N         -77.7318   22.3922  -76.7751 N.am      4 UNK        -0.4224 
     55 C         -77.9080   23.4257  -77.6098 C.2       3 UNK         0.4895 
     56 O         -76.9821   24.0504  -78.1287 O.2       3 UNK        -0.5091 
     57 CA        -79.3595   23.8621  -77.8785 C.3       3 UNK         0.0250 
     58 CB        -80.0024   22.9665  -78.9498 C.3       3 UNK        -0.1996 
     59 N         -80.2256   23.9110  -76.6901 N.am      3 UNK        -0.4254 
     60 C         -79.9689   24.6226  -75.5835 C.2       2 UNK         0.5004 
     61 O         -78.8999   25.1954  -75.3701 O.2       2 UNK        -0.5226 
     62 CA        -81.0670   24.7100  -74.5196 C.3       2 UNK         0.0269 
     63 CB        -80.8875   23.6128  -73.4580 C.3       2 UNK        -0.1926 
     64 N         -80.9388   26.0226  -73.8890 N.am      2 UNK        -0.4687 
     65 C         -81.9303   26.9028  -73.7275 C.2       1 UNK         0.5165 
     66 O         -83.1198   26.6397  -73.9237 O.2       1 UNK        -0.5079 
     67 H67       -81.6860   31.2651  -76.6824 H         1 UNK         0.0900 
     68 H68       -83.1620   31.0515  -75.7390 H         1 UNK         0.0900 
     69 H69       -82.8882   30.0716  -77.1812 H         1 UNK         0.0900 
     70 H70       -82.8177   29.8912  -73.8572 H         1 UNK         0.2959 
     71 H71       -80.4405   28.4085  -73.3192 H         1 UNK         0.1079 
     72 H72       -83.0673   28.4985  -71.7400 H         1 UNK         0.0837 
     73 H73       -81.5539   27.8644  -71.1518 H         1 UNK         0.0837 
     74 H74       -80.2250   30.8936  -69.3525 H         1 UNK         0.0685 
     75 H75       -80.9269   29.3106  -69.1506 H         1 UNK         0.0685 
     76 H76       -79.5180   27.4141  -69.4721 H         1 UNK         0.1434 
     77 H77       -75.6563   27.8543  -71.2943 H         1 UNK         0.1329 
     78 H78       -78.3698   31.1612  -71.2094 H         1 UNK         0.1335 
     79 H79       -75.8428   31.4399  -71.6146 H         1 UNK         0.0680 
     80 H80       -74.8770   30.0159  -71.9362 H         1 UNK         0.0680 
     81 H81       -74.1834   31.8326  -73.6436 H         1 UNK         0.1032 
     82 H82       -75.1429   32.3032  -75.0186 H         1 UNK         0.1032 
     83 H83       -74.6656   30.0548  -76.0636 H         1 UNK         0.0461 
     84 H84       -71.7779   30.9985  -77.9434 H         1 UNK         0.3453 
     85 H85       -72.7040   29.5917  -77.4475 H         1 UNK         0.3453 
     86 H86       -73.6500   28.4687  -74.8622 H         1 UNK         0.2984 
     87 H87       -70.6101   28.4291  -73.0439 H         1 UNK         0.0554 
     88 H88       -71.8224   27.1308  -71.3202 H         1 UNK         0.0847 
     89 H89       -73.3666   27.7504  -71.8977 H         1 UNK         0.0847 
     90 H90       -72.1969   28.8395  -71.1633 H         1 UNK         0.0847 
     91 H91       -72.8192   26.7105  -74.1152 H         1 UNK         0.3141 
     92 H92       -70.3590   24.5510  -75.6480 H         1 UNK         0.0743 
     93 H93       -70.8520   23.8801  -73.2990 H         1 UNK         0.0784 
     94 H94       -72.5486   24.2806  -73.5246 H         1 UNK         0.0784 
     95 H95       -71.8200   22.9672  -74.4452 H         1 UNK         0.0784 
     96 H96       -73.2072   24.5997  -75.9019 H         1 UNK         0.3213 
     97 H97       -73.2090   26.1076  -79.1589 H         1 UNK         0.0855 
     98 H98       -72.6885   23.6931  -79.4572 H         1 UNK         0.0814 
     99 H99       -74.4137   23.9850  -79.6170 H         1 UNK         0.0814 
    100 H100      -73.7724   23.2707  -78.1403 H         1 UNK         0.0814 
    101 H101      -75.3330   25.1462  -77.4956 H         1 UNK         0.3105 
    102 H102      -75.9452   28.2506  -75.8040 H         1 UNK         0.0547 
    103 H103      -77.1735   28.4180  -77.9579 H         1 UNK         0.0837 
    104 H104      -77.5504   26.7017  -77.8998 H         1 UNK         0.0837 
    105 H105      -78.2150   27.7943  -76.6880 H         1 UNK         0.0837 
    106 H106      -77.2364   25.7528  -75.5701 H         1 UNK         0.3020 
    107 H107      -74.9937   24.2340  -73.2610 H         1 UNK         0.1245 
    108 H108      -77.5441   24.0357  -72.3199 H         1 UNK         0.0781 
    109 H109      -77.5674   25.7352  -72.6959 H         1 UNK         0.0781 
    110 H110      -76.9231   26.0303  -68.8992 H         1 UNK         0.0836 
    111 H111      -78.1715   25.4242  -69.9599 H         1 UNK         0.0836 
    112 H112      -77.4423   23.4750  -74.5931 H         1 UNK         0.3022 
    113 H113      -75.8019   21.7570  -77.2336 H         1 UNK         0.0747 
    114 H114      -77.0200   19.8093  -76.2927 H         1 UNK         0.0793 
    115 H115      -75.6032   20.1655  -75.3194 H         1 UNK         0.0793 
    116 H116      -77.1971   20.6318  -74.7421 H         1 UNK         0.0793 
    117 H117      -78.5460   21.9329  -76.3935 H         1 UNK         0.3047 
    118 H118      -79.3141   24.8781  -78.2763 H         1 UNK         0.0822 
    119 H119      -80.9794   23.3453  -79.2504 H         1 UNK         0.0807 
    120 H120      -80.1326   21.9423  -78.5979 H         1 UNK         0.0807 
    121 H121      -79.3840   22.9264  -79.8479 H         1 UNK         0.0807 
    122 H122      -81.1198   23.4481  -76.7710 H         1 UNK         0.2946 
    123 H123      -82.0406   24.6030  -75.0038 H         1 UNK         0.1144 
    124 H124      -81.6558   23.6820  -72.6878 H         1 UNK         0.0793 
    125 H125      -79.9167   23.6794  -72.9660 H         1 UNK         0.0793 
    126 H126      -80.9632   22.6198  -73.9028 H         1 UNK         0.0793 
    127 H127      -79.9812   26.3377  -73.7985 H         1 UNK         0.2896 
@<TRIPOS>BOND
     1    1    2 1    
     2    1   67 1    
     3    1   68 1    
     4    1   69 1    
     5    2    3 2    
     6    2    4 am   BACKBONE|DICT|INTERRES
     7    4    5 1    
     8    4   70 1    
     9    5    6 1    
    10    5   65 1    
    11    5   71 1    
    12    6    7 1    
    13    6   72 1    
    14    6   73 1    
    15    7    8 1    
    16    8    9 1    
    17    8   74 1    
    18    8   75 1    
    19    9   10 ar   
    20    9   14 ar   
    21   10   11 ar   
    22   10   76 1    
    23   11   12 ar   
    24   11   48 1    
    25   12   13 ar   
    26   12   77 1    
    27   13   14 ar   
    28   13   15 1    
    29   14   78 1    
    30   15   16 1    
    31   15   79 1    
    32   15   80 1    
    33   16   17 1    
    34   17   18 1    
    35   17   81 1    
    36   17   82 1    
    37   18   19 1    
    38   18   22 1    
    39   18   83 1    
    40   19   20 am   BACKBONE|DICT|INTERRES
    41   19   21 2    
    42   20   84 1    
    43   20   85 1    
    44   22   23 am   BACKBONE|DICT|INTERRES
    45   22   86 1    
    46   23   24 2    
    47   23   25 1    
    48   25   26 1    
    49   25   27 1    
    50   25   87 1    
    51   26   88 1    
    52   26   89 1    
    53   26   90 1    
    54   27   28 am   BACKBONE|DICT|INTERRES
    55   27   91 1    
    56   28   29 2    
    57   28   30 1    
    58   30   31 1    
    59   30   32 1    
    60   30   92 1    
    61   31   93 1    
    62   31   94 1    
    63   31   95 1    
    64   32   33 am   BACKBONE|DICT|INTERRES
    65   32   96 1    
    66   33   34 2    
    67   33   35 1    
    68   35   36 1    
    69   35   37 1    
    70   35   97 1    
    71   36   98 1    
    72   36   99 1    
    73   36  100 1    
    74   37   38 am   BACKBONE|DICT|INTERRES
    75   37  101 1    
    76   38   39 2    
    77   38   40 1    
    78   40   41 1    
    79   40   42 1    
    80   40  102 1    
    81   41  103 1    
    82   41  104 1    
    83   41  105 1    
    84   42   43 am   BACKBONE|DICT|INTERRES
    85   42  106 1    
    86   43   44 2    
    87   43   45 1    
    88   45   46 1    
    89   45   49 1    
    90   45  107 1    
    91   46   47 1    
    92   46  108 1    
    93   46  109 1    
    94   47   48 1    
    95   48  110 1    
    96   48  111 1    
    97   49   50 am   BACKBONE|DICT|INTERRES
    98   49  112 1    
    99   50   51 2    
   100   50   52 1    
   101   52   53 1    
   102   52   54 1    
   103   52  113 1    
   104   53  114 1    
   105   53  115 1    
   106   53  116 1    
   107   54   55 am   BACKBONE|DICT|INTERRES
   108   54  117 1    
   109   55   56 2    
   110   55   57 1    
   111   57   58 1    
   112   57   59 1    
   113   57  118 1    
   114   58  119 1    
   115   58  120 1    
   116   58  121 1    
   117   59   60 am   BACKBONE|DICT|INTERRES
   118   59  122 1    
   119   60   61 2    
   120   60   62 1    
   121   62   63 1    
   122   62   64 1    
   123   62  123 1    
   124   63  124 1    
   125   63  125 1    
   126   63  126 1    
   127   64   65 am   BACKBONE|DICT|INTERRES
   128   64  127 1    
   129   65   66 2    
@<TRIPOS>SUBSTRUCTURE
     1 UNK         1 GROUP             0       ****    0 ROOT    
