@<TRIPOS>MOLECULE
3R135
127   129    1
SMALL
USER_CHARGES


@<TRIPOS>ATOM
      1 CA        -85.5312   29.5973  -73.6336 C.3       0 UNK        -0.1998 
      2 C         -84.3493   29.3029  -74.5454 C.2       0 UNK         0.4909 
      3 O         -84.5022   29.3084  -75.7677 O.2       0 UNK        -0.5240 
      4 N         -83.1707   29.0562  -73.9610 N.am      1 UNK        -0.4739 
      5 CA        -81.9400   28.7039  -74.6787 C.3       1 UNK         0.0864 
      6 C6        -80.6844   28.8491  -73.7838 C.3       11 UNK        -0.0881 
      7 S7        -80.4693   30.5319  -73.1071 S.3       11 UNK        -0.2682 
      8 C8        -80.4128   30.2131  -71.3130 C.3       11 UNK         0.0289 
      9 C9        -79.1139   29.5328  -70.9018 C.ar      11 UNK        -0.0687 
     10 C10       -79.0566   28.1430  -70.7611 C.ar      11 UNK        -0.0823 
     11 C11       -77.8592   27.5112  -70.4167 C.ar      11 UNK        -0.0830 
     12 C12       -76.7181   28.2823  -70.1783 C.ar      11 UNK        -0.1021 
     13 C13       -76.7611   29.6729  -70.3143 C.ar      11 UNK        -0.0753 
     14 C14       -77.9637   30.2931  -70.6696 C.ar      11 UNK        -0.0933 
     15 C15       -75.5054   30.5034  -70.0872 C.3       11 UNK         0.0166 
     16 S16       -74.9222   31.2920  -71.6218 S.3       11 UNK        -0.2615 
     17 C17       -74.4498   29.8537  -72.6445 C.3       11 UNK        -0.0865 
     18 CA        -72.9458   29.8735  -73.0441 C.3       10 UNK         0.0862 
     19 C         -72.0457   29.0439  -72.0801 C.2       10 UNK         0.5551 
     20 N         -71.0917   28.2583  -72.5689 N.am      10 UNK        -0.7319 
     21 O         -72.2022   29.1201  -70.8643 O.2       10 UNK        -0.5018 
     22 N         -72.7834   29.4906  -74.4533 N.am      10 UNK        -0.4509 
     23 C         -72.0344   30.1348  -75.3552 C.2       10 UNK         0.4899 
     24 O         -71.4208   31.1773  -75.1198 O.2       10 UNK        -0.4839 
     25 CA        -71.9636   29.5025  -76.7591 C.3       9 UNK         0.0222 
     26 CB        -70.8197   30.0779  -77.6213 C.3       9 UNK        -0.1966 
     27 N         -71.9074   28.0350  -76.7404 N.am      9 UNK        -0.4218 
     28 C         -70.9721   27.2627  -76.1634 C.2       9 UNK         0.5020 
     29 O         -70.0353   27.7176  -75.5047 O.2       9 UNK        -0.5274 
     30 CA        -71.0920   25.7298  -76.3096 C.3       8 UNK         0.0270 
     31 CB        -70.9809   25.0413  -74.9375 C.3       8 UNK        -0.1976 
     32 N         -72.3276   25.2851  -76.9592 N.am      8 UNK        -0.4313 
     33 C         -72.5837   25.3165  -78.2736 C.2       8 UNK         0.5041 
     34 O         -71.7598   25.6522  -79.1245 O.2       8 UNK        -0.5577 
     35 CA        -74.0269   24.9844  -78.7008 C.3       7 UNK         0.0284 
     36 CB        -74.2080   23.4720  -78.9027 C.3       7 UNK        -0.1958 
     37 N         -75.0297   25.4887  -77.7526 N.am      7 UNK        -0.4454 
     38 C         -75.2162   26.7891  -77.4753 C.2       7 UNK         0.5089 
     39 O         -74.6026   27.6999  -78.0304 O.2       7 UNK        -0.5125 
     40 CA        -76.2072   27.1333  -76.3538 C.3       6 UNK         0.0408 
     41 CB        -77.6394   27.1790  -76.8969 C.3       6 UNK        -0.1791 
     42 N         -76.1098   26.1936  -75.2332 N.am      6 UNK        -0.4762 
     43 C         -75.0742   26.1756  -74.3793 C.2       6 UNK         0.5007 
     44 O         -74.1569   26.9963  -74.4161 O.2       6 UNK        -0.5032 
     45 CA        -74.9978   25.0221  -73.3582 C.3       5 UNK         0.0783 
     46 C46       -75.6342   25.3807  -71.9945 C.3       11 UNK        -0.0857 
     47 S47       -77.4539   25.2444  -71.9429 S.3       11 UNK        -0.2512 
     48 C48       -77.8058   25.9944  -70.3210 C.3       11 UNK         0.0225 
     49 N         -75.4859   23.7518  -73.9005 N.am      5 UNK        -0.4615 
     50 C         -74.8674   23.0669  -74.8695 C.2       4 UNK         0.5053 
     51 O         -73.8123   23.4291  -75.3855 O.2       4 UNK        -0.5105 
     52 CA        -75.5405   21.7796  -75.3697 C.3       4 UNK         0.0263 
     53 CB        -75.0411   20.5693  -74.5654 C.3       4 UNK        -0.1981 
     54 N         -77.0050   21.8164  -75.3379 N.am      4 UNK        -0.4224 
     55 C         -77.7745   22.6761  -76.0204 C.2       3 UNK         0.4895 
     56 O         -77.3207   23.5768  -76.7335 O.2       3 UNK        -0.5091 
     57 CA        -79.2968   22.4452  -75.9075 C.3       3 UNK         0.0250 
     58 CB        -79.7541   22.1699  -74.4554 C.3       3 UNK        -0.1996 
     59 N         -80.0966   23.5181  -76.5134 N.am      3 UNK        -0.4254 
     60 C         -80.1957   24.7899  -76.1003 C.2       2 UNK         0.5004 
     61 O         -79.6145   25.2362  -75.1081 O.2       2 UNK        -0.5226 
     62 CA        -81.0549   25.7258  -76.9812 C.3       2 UNK         0.0269 
     63 CB        -82.3759   25.0731  -77.4508 C.3       2 UNK        -0.1926 
     64 N         -81.3065   27.0295  -76.3481 N.am      2 UNK        -0.4687 
     65 C         -82.0148   27.2654  -75.2330 C.2       1 UNK         0.5165 
     66 O         -82.6624   26.4080  -74.6242 O.2       1 UNK        -0.5079 
     67 H67       -85.2491   29.5774  -72.5810 H         1 UNK         0.0900 
     68 H68       -85.9405   30.5824  -73.8559 H         1 UNK         0.0900 
     69 H69       -86.3169   28.8583  -73.7881 H         1 UNK         0.0900 
     70 H70       -83.1047   29.0505  -72.9540 H         1 UNK         0.2959 
     71 H71       -81.8411   29.3894  -75.5237 H         1 UNK         0.1079 
     72 H72       -79.7803   28.6060  -74.3454 H         1 UNK         0.0837 
     73 H73       -80.7310   28.1245  -72.9716 H         1 UNK         0.0837 
     74 H74       -80.5095   31.1629  -70.7849 H         1 UNK         0.0685 
     75 H75       -81.2748   29.6129  -71.0177 H         1 UNK         0.0685 
     76 H76       -79.9399   27.5448  -70.9354 H         1 UNK         0.1434 
     77 H77       -75.7910   27.7995  -69.9018 H         1 UNK         0.1329 
     78 H78       -77.9980   31.3681  -70.7842 H         1 UNK         0.1335 
     79 H79       -74.7011   29.8957  -69.6692 H         1 UNK         0.0680 
     80 H80       -75.7191   31.2793  -69.3508 H         1 UNK         0.0680 
     81 H81       -75.0833   29.8943  -73.5322 H         1 UNK         0.1032 
     82 H82       -74.7189   28.9170  -72.1540 H         1 UNK         0.1032 
     83 H83       -72.5869   30.8982  -72.9357 H         1 UNK         0.0461 
     84 H84       -70.5137   27.7348  -71.9315 H         1 UNK         0.3453 
     85 H85       -70.9169   28.2100  -73.5642 H         1 UNK         0.3453 
     86 H86       -73.2175   28.6049  -74.7032 H         1 UNK         0.2984 
     87 H87       -72.9029   29.7609  -77.2496 H         1 UNK         0.0554 
     88 H88       -70.8108   29.6329  -78.6163 H         1 UNK         0.0847 
     89 H89       -69.8437   29.9039  -77.1670 H         1 UNK         0.0847 
     90 H90       -70.9301   31.1551  -77.7515 H         1 UNK         0.0847 
     91 H91       -72.6694   27.5780  -77.2287 H         1 UNK         0.3141 
     92 H92       -70.2486   25.4027  -76.9208 H         1 UNK         0.0743 
     93 H93       -71.0464   23.9569  -75.0295 H         1 UNK         0.0784 
     94 H94       -70.0269   25.2655  -74.4585 H         1 UNK         0.0784 
     95 H95       -71.7699   25.3695  -74.2605 H         1 UNK         0.0784 
     96 H96       -73.0386   24.8929  -76.3464 H         1 UNK         0.3213 
     97 H97       -74.2080   25.4771  -79.6585 H         1 UNK         0.0855 
     98 H98       -73.5459   23.1055  -79.6882 H         1 UNK         0.0814 
     99 H99       -75.2287   23.2273  -79.1975 H         1 UNK         0.0814 
    100 H100      -73.9749   22.9110  -77.9986 H         1 UNK         0.0814 
    101 H101      -75.6046   24.8051  -77.2717 H         1 UNK         0.3105 
    102 H102      -75.9617   28.1314  -75.9837 H         1 UNK         0.0547 
    103 H103      -78.3477   27.4451  -76.1131 H         1 UNK         0.0837 
    104 H104      -77.9372   26.2190  -77.3181 H         1 UNK         0.0837 
    105 H105      -77.7327   27.9247  -77.6874 H         1 UNK         0.0837 
    106 H106      -76.8270   25.4827  -75.1600 H         1 UNK         0.3020 
    107 H107      -73.9308   24.8851  -73.1666 H         1 UNK         0.1245 
    108 H108      -75.3306   26.3829  -71.6911 H         1 UNK         0.0781 
    109 H109      -75.2377   24.7108  -71.2300 H         1 UNK         0.0781 
    110 H110      -77.0589   25.6780  -69.5911 H         1 UNK         0.0836 
    111 H111      -78.7621   25.6140  -69.9587 H         1 UNK         0.0836 
    112 H112      -76.3623   23.4126  -73.5311 H         1 UNK         0.3022 
    113 H113      -75.2428   21.6400  -76.4104 H         1 UNK         0.0747 
    114 H114      -75.4273   19.6344  -74.9720 H         1 UNK         0.0793 
    115 H115      -73.9521   20.5057  -74.5927 H         1 UNK         0.0793 
    116 H116      -75.3375   20.6292  -73.5173 H         1 UNK         0.0793 
    117 H117      -77.4586   21.1041  -74.7845 H         1 UNK         0.3047 
    118 H118      -79.5104   21.5522  -76.4968 H         1 UNK         0.0822 
    119 H119      -79.4285   22.9540  -73.7703 H         1 UNK         0.0807 
    120 H120      -79.3602   21.2249  -74.0808 H         1 UNK         0.0807 
    121 H121      -80.8403   22.1046  -74.3898 H         1 UNK         0.0807 
    122 H122      -80.5760   23.2636  -77.3652 H         1 UNK         0.2946 
    123 H123      -80.4567   25.9359  -77.8694 H         1 UNK         0.1144 
    124 H124      -82.1921   24.2469  -78.1380 H         1 UNK         0.0793 
    125 H125      -82.9551   24.6785  -76.6152 H         1 UNK         0.0793 
    126 H126      -83.0039   25.7893  -77.9811 H         1 UNK         0.0793 
    127 H127      -80.7984   27.8027  -76.7538 H         1 UNK         0.2896 
@<TRIPOS>BOND
     1    1    2 1    
     2    1   67 1    
     3    1   68 1    
     4    1   69 1    
     5    2    3 2    
     6    2    4 am   BACKBONE|DICT|INTERRES
     7    4    5 1    
     8    4   70 1    
     9    5    6 1    
    10    5   65 1    
    11    5   71 1    
    12    6    7 1    
    13    6   72 1    
    14    6   73 1    
    15    7    8 1    
    16    8    9 1    
    17    8   74 1    
    18    8   75 1    
    19    9   10 ar   
    20    9   14 ar   
    21   10   11 ar   
    22   10   76 1    
    23   11   12 ar   
    24   11   48 1    
    25   12   13 ar   
    26   12   77 1    
    27   13   14 ar   
    28   13   15 1    
    29   14   78 1    
    30   15   16 1    
    31   15   79 1    
    32   15   80 1    
    33   16   17 1    
    34   17   18 1    
    35   17   81 1    
    36   17   82 1    
    37   18   19 1    
    38   18   22 1    
    39   18   83 1    
    40   19   20 am   BACKBONE|DICT|INTERRES
    41   19   21 2    
    42   20   84 1    
    43   20   85 1    
    44   22   23 am   BACKBONE|DICT|INTERRES
    45   22   86 1    
    46   23   24 2    
    47   23   25 1    
    48   25   26 1    
    49   25   27 1    
    50   25   87 1    
    51   26   88 1    
    52   26   89 1    
    53   26   90 1    
    54   27   28 am   BACKBONE|DICT|INTERRES
    55   27   91 1    
    56   28   29 2    
    57   28   30 1    
    58   30   31 1    
    59   30   32 1    
    60   30   92 1    
    61   31   93 1    
    62   31   94 1    
    63   31   95 1    
    64   32   33 am   BACKBONE|DICT|INTERRES
    65   32   96 1    
    66   33   34 2    
    67   33   35 1    
    68   35   36 1    
    69   35   37 1    
    70   35   97 1    
    71   36   98 1    
    72   36   99 1    
    73   36  100 1    
    74   37   38 am   BACKBONE|DICT|INTERRES
    75   37  101 1    
    76   38   39 2    
    77   38   40 1    
    78   40   41 1    
    79   40   42 1    
    80   40  102 1    
    81   41  103 1    
    82   41  104 1    
    83   41  105 1    
    84   42   43 am   BACKBONE|DICT|INTERRES
    85   42  106 1    
    86   43   44 2    
    87   43   45 1    
    88   45   46 1    
    89   45   49 1    
    90   45  107 1    
    91   46   47 1    
    92   46  108 1    
    93   46  109 1    
    94   47   48 1    
    95   48  110 1    
    96   48  111 1    
    97   49   50 am   BACKBONE|DICT|INTERRES
    98   49  112 1    
    99   50   51 2    
   100   50   52 1    
   101   52   53 1    
   102   52   54 1    
   103   52  113 1    
   104   53  114 1    
   105   53  115 1    
   106   53  116 1    
   107   54   55 am   BACKBONE|DICT|INTERRES
   108   54  117 1    
   109   55   56 2    
   110   55   57 1    
   111   57   58 1    
   112   57   59 1    
   113   57  118 1    
   114   58  119 1    
   115   58  120 1    
   116   58  121 1    
   117   59   60 am   BACKBONE|DICT|INTERRES
   118   59  122 1    
   119   60   61 2    
   120   60   62 1    
   121   62   63 1    
   122   62   64 1    
   123   62  123 1    
   124   63  124 1    
   125   63  125 1    
   126   63  126 1    
   127   64   65 am   BACKBONE|DICT|INTERRES
   128   64  127 1    
   129   65   66 2    
@<TRIPOS>SUBSTRUCTURE
     1 UNK         1 GROUP             0       ****    0 ROOT    
