@<TRIPOS>MOLECULE
3R135
127   129    1
SMALL
USER_CHARGES


@<TRIPOS>ATOM
      1 CA        -85.0749   30.3111  -75.2407 C.3       0 UNK        -0.1998 
      2 C         -83.6346   29.8691  -75.4542 C.2       0 UNK         0.4909 
      3 O         -83.0716   30.1196  -76.5206 O.2       0 UNK        -0.5240 
      4 N         -83.0381   29.2260  -74.4436 N.am      1 UNK        -0.4739 
      5 CA        -81.6831   28.6694  -74.4692 C.3       1 UNK         0.0864 
      6 C6        -80.9237   28.9450  -73.1411 C.3       11 UNK        -0.0881 
      7 S7        -81.7775   28.3564  -71.6335 S.3       11 UNK        -0.2682 
      8 C8        -80.9398   29.3339  -70.3450 C.3       11 UNK         0.0289 
      9 C9        -79.4357   29.0983  -70.3346 C.ar      11 UNK        -0.0687 
     10 C10       -78.9245   27.8360  -70.0152 C.ar      11 UNK        -0.0823 
     11 C11       -77.5464   27.6090  -70.0342 C.ar      11 UNK        -0.0830 
     12 C12       -76.6792   28.6668  -70.3103 C.ar      11 UNK        -0.1021 
     13 C13       -77.1742   29.9194  -70.6780 C.ar      11 UNK        -0.0753 
     14 C14       -78.5568   30.1325  -70.6776 C.ar      11 UNK        -0.0933 
     15 C15       -76.2177   31.0245  -71.1108 C.3       11 UNK         0.0166 
     16 S16       -75.3832   30.6214  -72.6876 S.3       11 UNK        -0.2615 
     17 C17       -73.9800   29.5935  -72.1235 C.3       11 UNK        -0.0865 
     18 CA        -72.6528   29.9441  -72.8438 C.3       10 UNK         0.0862 
     19 C         -71.4156   29.4349  -72.0402 C.2       10 UNK         0.5551 
     20 N         -70.5042   28.6536  -72.6069 N.am      10 UNK        -0.7319 
     21 O         -71.2727   29.7693  -70.8666 O.2       10 UNK        -0.5018 
     22 N         -72.6835   29.5181  -74.2522 N.am      10 UNK        -0.4509 
     23 C         -71.9226   30.0441  -75.2199 C.2       10 UNK         0.4899 
     24 O         -71.1935   31.0249  -75.0606 O.2       10 UNK        -0.4839 
     25 CA        -71.9686   29.3285  -76.5843 C.3       9 UNK         0.0222 
     26 CB        -70.8584   29.7954  -77.5488 C.3       9 UNK        -0.1966 
     27 N         -71.9597   27.8652  -76.4605 N.am      9 UNK        -0.4218 
     28 C         -71.0427   27.0994  -75.8463 C.2       9 UNK         0.5020 
     29 O         -70.0365   27.5516  -75.2989 O.2       9 UNK        -0.5274 
     30 CA        -71.2883   25.5780  -75.7867 C.3       8 UNK         0.0270 
     31 CB        -71.5597   25.1386  -74.3376 C.3       8 UNK        -0.1976 
     32 N         -72.3901   25.1214  -76.6371 N.am      8 UNK        -0.4313 
     33 C         -72.3429   25.0422  -77.9738 C.2       8 UNK         0.5041 
     34 O         -71.3267   25.2507  -78.6375 O.2       8 UNK        -0.5577 
     35 CA        -73.6646   24.7264  -78.6945 C.3       7 UNK         0.0284 
     36 CB        -73.8826   23.2078  -78.7830 C.3       7 UNK        -0.1958 
     37 N         -74.8273   25.3650  -78.0647 N.am      7 UNK        -0.4454 
     38 C         -75.0071   26.6914  -77.9655 C.2       7 UNK         0.5089 
     39 O         -74.2282   27.5211  -78.4327 O.2       7 UNK        -0.5125 
     40 CA        -76.2237   27.1828  -77.1651 C.3       6 UNK         0.0408 
     41 CB        -77.5087   27.0886  -78.0019 C.3       6 UNK        -0.1791 
     42 N         -76.3969   26.4544  -75.9093 N.am      6 UNK        -0.4762 
     43 C         -75.5453   26.4828  -74.8727 C.2       6 UNK         0.5007 
     44 O         -74.5344   27.1868  -74.8283 O.2       6 UNK        -0.5032 
     45 CA        -75.8645   25.5308  -73.7023 C.3       5 UNK         0.0783 
     46 C46       -76.8802   26.1838  -72.7381 C.3       11 UNK        -0.0857 
     47 S47       -77.3009   25.1375  -71.2930 S.3       11 UNK        -0.2512 
     48 C48       -76.9821   26.2086  -69.8453 C.3       11 UNK         0.0225 
     49 N         -76.3203   24.2261  -74.1883 N.am      5 UNK        -0.4615 
     50 C         -75.5565   23.3494  -74.8515 C.2       4 UNK         0.5053 
     51 O         -74.3718   23.5410  -75.1236 O.2       4 UNK        -0.5105 
     52 CA        -76.2457   22.0575  -75.3197 C.3       4 UNK         0.0263 
     53 CB        -76.3377   21.0443  -74.1677 C.3       4 UNK        -0.1981 
     54 N         -77.5815   22.3002  -75.8721 N.am      4 UNK        -0.4224 
     55 C         -77.8146   22.9852  -77.0007 C.2       3 UNK         0.4895 
     56 O         -76.9288   23.4613  -77.7086 O.2       3 UNK        -0.5091 
     57 CA        -79.2842   23.2151  -77.3881 C.3       3 UNK         0.0250 
     58 CB        -79.8470   21.9895  -78.1253 C.3       3 UNK        -0.1996 
     59 N         -80.1582   23.5589  -76.2605 N.am      3 UNK        -0.4254 
     60 C         -79.9849   24.6118  -75.4495 C.2       2 UNK         0.5004 
     61 O         -79.0052   25.3596  -75.4910 O.2       2 UNK        -0.5226 
     62 CA        -81.0724   24.8483  -74.3902 C.3       2 UNK         0.0269 
     63 CB        -80.7390   24.0870  -73.0980 C.3       2 UNK        -0.1926 
     64 N         -81.2077   26.2730  -74.0822 N.am      2 UNK        -0.4687 
     65 C         -81.7376   27.1868  -74.9066 C.2       1 UNK         0.5165 
     66 O         -82.2589   26.8924  -75.9850 O.2       1 UNK        -0.5079 
     67 H67       -85.1556   31.3925  -75.3482 H         1 UNK         0.0900 
     68 H68       -85.4424   30.0409  -74.2508 H         1 UNK         0.0900 
     69 H69       -85.7237   29.8452  -75.9819 H         1 UNK         0.0900 
     70 H70       -83.5565   29.0382  -73.5965 H         1 UNK         0.2959 
     71 H71       -81.1109   29.1692  -75.2542 H         1 UNK         0.1079 
     72 H72       -80.7780   30.0221  -73.0429 H         1 UNK         0.0837 
     73 H73       -79.9167   28.5235  -73.1736 H         1 UNK         0.0837 
     74 H74       -81.1693   30.3903  -70.4935 H         1 UNK         0.0685 
     75 H75       -81.3515   29.0638  -69.3716 H         1 UNK         0.0685 
     76 H76       -79.6012   27.0204  -69.7985 H         1 UNK         0.1434 
     77 H77       -75.6157   28.4864  -70.3082 H         1 UNK         0.1329 
     78 H78       -78.9502   31.1000  -70.9579 H         1 UNK         0.1335 
     79 H79       -75.4849   31.2146  -70.3255 H         1 UNK         0.0680 
     80 H80       -76.7619   31.9604  -71.2458 H         1 UNK         0.0680 
     81 H81       -74.2257   28.5403  -72.2694 H         1 UNK         0.1032 
     82 H82       -73.8685   29.7338  -71.0474 H         1 UNK         0.1032 
     83 H83       -72.5599   31.0319  -72.8322 H         1 UNK         0.0461 
     84 H84       -70.5560   28.3949  -73.5859 H         1 UNK         0.3453 
     85 H85       -69.7165   28.3507  -72.0572 H         1 UNK         0.3453 
     86 H86       -73.2633   28.7121  -74.4671 H         1 UNK         0.2984 
     87 H87       -72.9281   29.5907  -77.0320 H         1 UNK         0.0554 
     88 H88       -70.9345   29.2915  -78.5124 H         1 UNK         0.0847 
     89 H89       -69.8639   29.6007  -77.1457 H         1 UNK         0.0847 
     90 H90       -70.9289   30.8672  -77.7382 H         1 UNK         0.0847 
     91 H91       -72.7611   27.4020  -76.8723 H         1 UNK         0.3141 
     92 H92       -70.3718   25.0898  -76.1242 H         1 UNK         0.0743 
     93 H93       -72.4603   25.6045  -73.9373 H         1 UNK         0.0784 
     94 H94       -71.6823   24.0576  -74.2668 H         1 UNK         0.0784 
     95 H95       -70.7325   25.4136  -73.6818 H         1 UNK         0.0784 
     96 H96       -73.2462   24.8451  -76.1640 H         1 UNK         0.3213 
     97 H97       -73.5851   25.1180  -79.7109 H         1 UNK         0.0855 
     98 H98       -74.0126   22.7603  -77.7972 H         1 UNK         0.0814 
     99 H99       -73.0307   22.7171  -79.2555 H         1 UNK         0.0814 
    100 H100      -74.7642   22.9684  -79.3778 H         1 UNK         0.0814 
    101 H101      -75.5509   24.7431  -77.7094 H         1 UNK         0.3105 
    102 H102      -76.0581   28.2333  -76.9168 H         1 UNK         0.0547 
    103 H103      -77.7397   26.0588  -78.2747 H         1 UNK         0.0837 
    104 H104      -78.3652   27.4884  -77.4588 H         1 UNK         0.0837 
    105 H105      -77.4146   27.6586  -78.9270 H         1 UNK         0.0837 
    106 H106      -77.2409   25.8904  -75.8232 H         1 UNK         0.3020 
    107 H107      -74.9324   25.3714  -73.1557 H         1 UNK         0.1245 
    108 H108      -76.4766   27.1384  -72.4075 H         1 UNK         0.0781 
    109 H109      -77.8119   26.4190  -73.2563 H         1 UNK         0.0781 
    110 H110      -77.4249   25.7522  -68.9590 H         1 UNK         0.0836 
    111 H111      -75.9067   26.2450  -69.6645 H         1 UNK         0.0836 
    112 H112      -77.2941   24.0114  -74.0357 H         1 UNK         0.3022 
    113 H113      -75.6295   21.6212  -76.1089 H         1 UNK         0.0747 
    114 H114      -76.7503   20.0940  -74.5073 H         1 UNK         0.0793 
    115 H115      -75.3503   20.8369  -73.7527 H         1 UNK         0.0793 
    116 H116      -76.9631   21.4106  -73.3524 H         1 UNK         0.0793 
    117 H117      -78.3701   21.9456  -75.3512 H         1 UNK         0.3047 
    118 H118      -79.3049   24.0614  -78.0780 H         1 UNK         0.0822 
    119 H119      -80.8481   22.1830  -78.5112 H         1 UNK         0.0807 
    120 H120      -79.8998   21.1140  -77.4769 H         1 UNK         0.0807 
    121 H121      -79.2200   21.7257  -78.9784 H         1 UNK         0.0807 
    122 H122      -80.9817   22.9861  -76.1424 H         1 UNK         0.2946 
    123 H123      -82.0281   24.4882  -74.7781 H         1 UNK         0.1144 
    124 H124      -81.5139   24.2272  -72.3440 H         1 UNK         0.0793 
    125 H125      -79.7934   24.4180  -72.6697 H         1 UNK         0.0793 
    126 H126      -80.6572   23.0149  -73.2814 H         1 UNK         0.0793 
    127 H127      -80.8149   26.5901  -73.2070 H         1 UNK         0.2896 
@<TRIPOS>BOND
     1    1    2 1    
     2    1   67 1    
     3    1   68 1    
     4    1   69 1    
     5    2    3 2    
     6    2    4 am   BACKBONE|DICT|INTERRES
     7    4    5 1    
     8    4   70 1    
     9    5    6 1    
    10    5   65 1    
    11    5   71 1    
    12    6    7 1    
    13    6   72 1    
    14    6   73 1    
    15    7    8 1    
    16    8    9 1    
    17    8   74 1    
    18    8   75 1    
    19    9   10 ar   
    20    9   14 ar   
    21   10   11 ar   
    22   10   76 1    
    23   11   12 ar   
    24   11   48 1    
    25   12   13 ar   
    26   12   77 1    
    27   13   14 ar   
    28   13   15 1    
    29   14   78 1    
    30   15   16 1    
    31   15   79 1    
    32   15   80 1    
    33   16   17 1    
    34   17   18 1    
    35   17   81 1    
    36   17   82 1    
    37   18   19 1    
    38   18   22 1    
    39   18   83 1    
    40   19   20 am   BACKBONE|DICT|INTERRES
    41   19   21 2    
    42   20   84 1    
    43   20   85 1    
    44   22   23 am   BACKBONE|DICT|INTERRES
    45   22   86 1    
    46   23   24 2    
    47   23   25 1    
    48   25   26 1    
    49   25   27 1    
    50   25   87 1    
    51   26   88 1    
    52   26   89 1    
    53   26   90 1    
    54   27   28 am   BACKBONE|DICT|INTERRES
    55   27   91 1    
    56   28   29 2    
    57   28   30 1    
    58   30   31 1    
    59   30   32 1    
    60   30   92 1    
    61   31   93 1    
    62   31   94 1    
    63   31   95 1    
    64   32   33 am   BACKBONE|DICT|INTERRES
    65   32   96 1    
    66   33   34 2    
    67   33   35 1    
    68   35   36 1    
    69   35   37 1    
    70   35   97 1    
    71   36   98 1    
    72   36   99 1    
    73   36  100 1    
    74   37   38 am   BACKBONE|DICT|INTERRES
    75   37  101 1    
    76   38   39 2    
    77   38   40 1    
    78   40   41 1    
    79   40   42 1    
    80   40  102 1    
    81   41  103 1    
    82   41  104 1    
    83   41  105 1    
    84   42   43 am   BACKBONE|DICT|INTERRES
    85   42  106 1    
    86   43   44 2    
    87   43   45 1    
    88   45   46 1    
    89   45   49 1    
    90   45  107 1    
    91   46   47 1    
    92   46  108 1    
    93   46  109 1    
    94   47   48 1    
    95   48  110 1    
    96   48  111 1    
    97   49   50 am   BACKBONE|DICT|INTERRES
    98   49  112 1    
    99   50   51 2    
   100   50   52 1    
   101   52   53 1    
   102   52   54 1    
   103   52  113 1    
   104   53  114 1    
   105   53  115 1    
   106   53  116 1    
   107   54   55 am   BACKBONE|DICT|INTERRES
   108   54  117 1    
   109   55   56 2    
   110   55   57 1    
   111   57   58 1    
   112   57   59 1    
   113   57  118 1    
   114   58  119 1    
   115   58  120 1    
   116   58  121 1    
   117   59   60 am   BACKBONE|DICT|INTERRES
   118   59  122 1    
   119   60   61 2    
   120   60   62 1    
   121   62   63 1    
   122   62   64 1    
   123   62  123 1    
   124   63  124 1    
   125   63  125 1    
   126   63  126 1    
   127   64   65 am   BACKBONE|DICT|INTERRES
   128   64  127 1    
   129   65   66 2    
@<TRIPOS>SUBSTRUCTURE
     1 UNK         1 GROUP             0       ****    0 ROOT    
