@<TRIPOS>MOLECULE
3R135
127   129    1
SMALL
USER_CHARGES


@<TRIPOS>ATOM
      1 CA        -82.8679   24.4751  -69.0566 C.3       0 UNK        -0.1998 
      2 C         -82.9807   24.7758  -70.5435 C.2       0 UNK         0.4909 
      3 O         -83.9173   24.3103  -71.1933 O.2       0 UNK        -0.5240 
      4 N         -82.0329   25.5510  -71.0873 N.am      1 UNK        -0.4739 
      5 CA        -81.9895   25.9562  -72.5002 C.3       1 UNK         0.0864 
      6 C6        -81.0122   27.1361  -72.7351 C.3       11 UNK        -0.0881 
      7 S7        -81.3991   28.6025  -71.7211 S.3       11 UNK        -0.2682 
      8 C8        -80.7932   29.9624  -72.7853 C.3       11 UNK         0.0289 
      9 C9        -79.2849   29.9854  -73.0564 C.ar      11 UNK        -0.0687 
     10 C10       -78.8102   30.7586  -74.1229 C.ar      11 UNK        -0.0823 
     11 C11       -77.4449   30.8257  -74.4243 C.ar      11 UNK        -0.0830 
     12 C12       -76.5457   30.0971  -73.6347 C.ar      11 UNK        -0.1021 
     13 C13       -76.9986   29.3240  -72.5638 C.ar      11 UNK        -0.0753 
     14 C14       -78.3628   29.2824  -72.2702 C.ar      11 UNK        -0.0933 
     15 C15       -76.0090   28.5183  -71.7402 C.3       11 UNK         0.0166 
     16 S16       -75.0585   29.5723  -70.6059 S.3       11 UNK        -0.2615 
     17 C17       -73.7542   28.4016  -70.0913 C.3       11 UNK        -0.0865 
     18 CA        -72.4043   28.6573  -70.8140 C.3       10 UNK         0.0862 
     19 C         -71.2800   27.7378  -70.2519 C.2       10 UNK         0.5551 
     20 N         -70.6071   26.9329  -71.0652 N.am      10 UNK        -0.7319 
     21 O         -71.0094   27.7618  -69.0538 O.2       10 UNK        -0.5018 
     22 N         -72.5561   28.6165  -72.2791 N.am      10 UNK        -0.4509 
     23 C         -71.7805   29.2674  -73.1515 C.2       10 UNK         0.4899 
     24 O         -70.8030   29.9469  -72.8350 O.2       10 UNK        -0.4839 
     25 CA        -72.1657   29.0974  -74.6277 C.3       9 UNK         0.0222 
     26 CB        -71.3559   30.0057  -75.5711 C.3       9 UNK        -0.1966 
     27 N         -71.9848   27.7011  -75.0291 N.am      9 UNK        -0.4218 
     28 C         -72.9593   26.7874  -75.0925 C.2       9 UNK         0.5020 
     29 O         -74.1406   27.0233  -74.8325 O.2       9 UNK        -0.5274 
     30 CA        -72.5419   25.3674  -75.4784 C.3       8 UNK         0.0270 
     31 CB        -72.3933   24.4771  -74.2306 C.3       8 UNK        -0.1976 
     32 N         -73.5309   24.8050  -76.3952 N.am      8 UNK        -0.4313 
     33 C         -73.2818   23.8171  -77.2649 C.2       8 UNK         0.5041 
     34 O         -72.2000   23.2323  -77.3427 O.2       8 UNK        -0.5577 
     35 CA        -74.4054   23.4264  -78.2348 C.3       7 UNK         0.0284 
     36 CB        -75.3918   22.4442  -77.5812 C.3       7 UNK        -0.1958 
     37 N         -75.1148   24.6098  -78.7274 N.am      7 UNK        -0.4454 
     38 C         -74.8190   25.2253  -79.8818 C.2       7 UNK         0.5089 
     39 O         -73.9570   24.8320  -80.6690 O.2       7 UNK        -0.5125 
     40 CA        -75.6142   26.4949  -80.2293 C.3       6 UNK         0.0408 
     41 CB        -76.9905   26.1291  -80.8074 C.3       6 UNK        -0.1791 
     42 N         -75.7924   27.3967  -79.0934 N.am      6 UNK        -0.4762 
     43 C         -74.8239   28.0684  -78.4566 C.2       6 UNK         0.5007 
     44 O         -73.6386   28.0189  -78.7860 O.2       6 UNK        -0.5032 
     45 CA        -75.2240   28.9206  -77.2309 C.3       5 UNK         0.0783 
     46 C46       -75.4102   30.4185  -77.5908 C.3       11 UNK        -0.0857 
     47 S47       -75.2624   31.5110  -76.1359 S.3       11 UNK        -0.2512 
     48 C48       -76.9965   31.7189  -75.5869 C.3       11 UNK         0.0225 
     49 N         -76.3322   28.3339  -76.4594 N.am      5 UNK        -0.4615 
     50 C         -77.6210   28.2497  -76.8170 C.2       4 UNK         0.5053 
     51 O         -78.0582   28.7420  -77.8578 O.2       4 UNK        -0.5105 
     52 CA        -78.5853   27.4455  -75.9214 C.3       4 UNK         0.0263 
     53 CB        -79.6376   26.7043  -76.7725 C.3       4 UNK        -0.1981 
     54 N         -77.9772   26.4983  -74.9761 N.am      4 UNK        -0.4224 
     55 C         -77.1319   25.4913  -75.2445 C.2       3 UNK         0.4895 
     56 O         -76.5486   25.3366  -76.3190 O.2       3 UNK        -0.5091 
     57 CA        -76.9509   24.4570  -74.1199 C.3       3 UNK         0.0250 
     58 CB        -76.2195   25.0462  -72.9038 C.3       3 UNK        -0.1996 
     59 N         -78.2356   23.9139  -73.6731 N.am      3 UNK        -0.4254 
     60 C         -79.0176   23.0802  -74.3754 C.2       2 UNK         0.5004 
     61 O         -78.7272   22.6295  -75.4831 O.2       2 UNK        -0.5226 
     62 CA        -80.3512   22.6788  -73.7199 C.3       2 UNK         0.0269 
     63 CB        -80.1642   21.4424  -72.8254 C.3       2 UNK        -0.1926 
     64 N         -80.9226   23.7716  -72.9260 N.am      2 UNK        -0.4687 
     65 C         -81.6225   24.7915  -73.4454 C.2       1 UNK         0.5165 
     66 O         -81.9580   24.8500  -74.6281 O.2       1 UNK        -0.5079 
     67 H67       -83.7557   24.8301  -68.5341 H         1 UNK         0.0900 
     68 H68       -82.7847   23.4005  -68.8963 H         1 UNK         0.0900 
     69 H69       -81.9973   24.9536  -68.6084 H         1 UNK         0.0900 
     70 H70       -81.3075   25.9371  -70.4993 H         1 UNK         0.2959 
     71 H71       -82.9920   26.2858  -72.7831 H         1 UNK         0.1079 
     72 H72       -79.9874   26.8336  -72.5153 H         1 UNK         0.0837 
     73 H73       -81.0282   27.4320  -73.7863 H         1 UNK         0.0837 
     74 H74       -81.3342   29.9219  -73.7321 H         1 UNK         0.0685 
     75 H75       -81.0682   30.9075  -72.3154 H         1 UNK         0.0685 
     76 H76       -79.5132   31.3198  -74.7241 H         1 UNK         0.1434 
     77 H77       -75.4848   30.1264  -73.8354 H         1 UNK         0.1329 
     78 H78       -78.6964   28.6965  -71.4262 H         1 UNK         0.1335 
     79 H79       -76.5239   27.7554  -71.1552 H         1 UNK         0.0680 
     80 H80       -75.3338   27.9926  -72.4160 H         1 UNK         0.0680 
     81 H81       -73.6308   28.5095  -69.0118 H         1 UNK         0.1032 
     82 H82       -74.0890   27.3747  -70.2501 H         1 UNK         0.1032 
     83 H83       -72.0973   29.6720  -70.5525 H         1 UNK         0.0461 
     84 H84       -70.8075   26.9248  -72.0509 H         1 UNK         0.3453 
     85 H85       -69.8787   26.3464  -70.6893 H         1 UNK         0.3453 
     86 H86       -73.3181   28.0600  -72.6379 H         1 UNK         0.2984 
     87 H87       -73.2133   29.3904  -74.7103 H         1 UNK         0.0554 
     88 H88       -71.4809   31.0555  -75.3025 H         1 UNK         0.0847 
     89 H89       -71.6877   29.8966  -76.6040 H         1 UNK         0.0847 
     90 H90       -70.2887   29.7833  -75.5356 H         1 UNK         0.0847 
     91 H91       -71.0355   27.4145  -75.2249 H         1 UNK         0.3141 
     92 H92       -71.5795   25.4220  -75.9922 H         1 UNK         0.0743 
     93 H93       -73.3467   24.3261  -73.7252 H         1 UNK         0.0784 
     94 H94       -71.9985   23.4948  -74.4905 H         1 UNK         0.0784 
     95 H95       -71.7052   24.9192  -73.5091 H         1 UNK         0.0784 
     96 H96       -74.4486   25.2409  -76.3723 H         1 UNK         0.3213 
     97 H97       -73.9427   22.9004  -79.0729 H         1 UNK         0.0855 
     98 H98       -75.8880   22.8711  -76.7116 H         1 UNK         0.0814 
     99 H99       -74.8766   21.5424  -77.2482 H         1 UNK         0.0814 
    100 H100      -76.1647   22.1344  -78.2845 H         1 UNK         0.0814 
    101 H101      -75.8128   25.0111  -78.1065 H         1 UNK         0.3105 
    102 H102      -75.0574   27.0367  -80.9968 H         1 UNK         0.0547 
    103 H103      -76.8887   25.4682  -81.6693 H         1 UNK         0.0837 
    104 H104      -77.6145   25.6159  -80.0744 H         1 UNK         0.0837 
    105 H105      -77.5285   27.0160  -81.1427 H         1 UNK         0.0837 
    106 H106      -76.7416   27.5517  -78.7711 H         1 UNK         0.3020 
    107 H107      -74.3568   28.8689  -76.5784 H         1 UNK         0.1245 
    108 H108      -76.3482   30.6036  -78.1140 H         1 UNK         0.0781 
    109 H109      -74.6279   30.7362  -78.2830 H         1 UNK         0.0781 
    110 H110      -77.6645   31.5755  -76.4374 H         1 UNK         0.0836 
    111 H111      -77.1222   32.7567  -75.2758 H         1 UNK         0.0836 
    112 H112      -76.0385   27.8430  -75.6231 H         1 UNK         0.3022 
    113 H113      -79.1115   28.1825  -75.3160 H         1 UNK         0.0747 
    114 H114      -80.3402   26.1577  -76.1471 H         1 UNK         0.0793 
    115 H115      -80.2241   27.3975  -77.3767 H         1 UNK         0.0793 
    116 H116      -79.1723   25.9889  -77.4519 H         1 UNK         0.0793 
    117 H117      -78.3307   26.5560  -74.0341 H         1 UNK         0.3047 
    118 H118      -76.3468   23.6377  -74.5139 H         1 UNK         0.0822 
    119 H119      -75.9711   24.2685  -72.1814 H         1 UNK         0.0807 
    120 H120      -76.8242   25.7923  -72.3908 H         1 UNK         0.0807 
    121 H121      -75.2849   25.5222  -73.1903 H         1 UNK         0.0807 
    122 H122      -78.5573   24.2022  -72.7620 H         1 UNK         0.2946 
    123 H123      -81.0467   22.4168  -74.5212 H         1 UNK         0.1144 
    124 H124      -81.1136   21.1127  -72.4030 H         1 UNK         0.0793 
    125 H125      -79.4784   21.6364  -71.9998 H         1 UNK         0.0793 
    126 H126      -79.7579   20.6067  -73.3971 H         1 UNK         0.0793 
    127 H127      -80.7306   23.7785  -71.9346 H         1 UNK         0.2896 
@<TRIPOS>BOND
     1    1    2 1    
     2    1   67 1    
     3    1   68 1    
     4    1   69 1    
     5    2    3 2    
     6    2    4 am   BACKBONE|DICT|INTERRES
     7    4    5 1    
     8    4   70 1    
     9    5    6 1    
    10    5   65 1    
    11    5   71 1    
    12    6    7 1    
    13    6   72 1    
    14    6   73 1    
    15    7    8 1    
    16    8    9 1    
    17    8   74 1    
    18    8   75 1    
    19    9   10 ar   
    20    9   14 ar   
    21   10   11 ar   
    22   10   76 1    
    23   11   12 ar   
    24   11   48 1    
    25   12   13 ar   
    26   12   77 1    
    27   13   14 ar   
    28   13   15 1    
    29   14   78 1    
    30   15   16 1    
    31   15   79 1    
    32   15   80 1    
    33   16   17 1    
    34   17   18 1    
    35   17   81 1    
    36   17   82 1    
    37   18   19 1    
    38   18   22 1    
    39   18   83 1    
    40   19   20 am   BACKBONE|DICT|INTERRES
    41   19   21 2    
    42   20   84 1    
    43   20   85 1    
    44   22   23 am   BACKBONE|DICT|INTERRES
    45   22   86 1    
    46   23   24 2    
    47   23   25 1    
    48   25   26 1    
    49   25   27 1    
    50   25   87 1    
    51   26   88 1    
    52   26   89 1    
    53   26   90 1    
    54   27   28 am   BACKBONE|DICT|INTERRES
    55   27   91 1    
    56   28   29 2    
    57   28   30 1    
    58   30   31 1    
    59   30   32 1    
    60   30   92 1    
    61   31   93 1    
    62   31   94 1    
    63   31   95 1    
    64   32   33 am   BACKBONE|DICT|INTERRES
    65   32   96 1    
    66   33   34 2    
    67   33   35 1    
    68   35   36 1    
    69   35   37 1    
    70   35   97 1    
    71   36   98 1    
    72   36   99 1    
    73   36  100 1    
    74   37   38 am   BACKBONE|DICT|INTERRES
    75   37  101 1    
    76   38   39 2    
    77   38   40 1    
    78   40   41 1    
    79   40   42 1    
    80   40  102 1    
    81   41  103 1    
    82   41  104 1    
    83   41  105 1    
    84   42   43 am   BACKBONE|DICT|INTERRES
    85   42  106 1    
    86   43   44 2    
    87   43   45 1    
    88   45   46 1    
    89   45   49 1    
    90   45  107 1    
    91   46   47 1    
    92   46  108 1    
    93   46  109 1    
    94   47   48 1    
    95   48  110 1    
    96   48  111 1    
    97   49   50 am   BACKBONE|DICT|INTERRES
    98   49  112 1    
    99   50   51 2    
   100   50   52 1    
   101   52   53 1    
   102   52   54 1    
   103   52  113 1    
   104   53  114 1    
   105   53  115 1    
   106   53  116 1    
   107   54   55 am   BACKBONE|DICT|INTERRES
   108   54  117 1    
   109   55   56 2    
   110   55   57 1    
   111   57   58 1    
   112   57   59 1    
   113   57  118 1    
   114   58  119 1    
   115   58  120 1    
   116   58  121 1    
   117   59   60 am   BACKBONE|DICT|INTERRES
   118   59  122 1    
   119   60   61 2    
   120   60   62 1    
   121   62   63 1    
   122   62   64 1    
   123   62  123 1    
   124   63  124 1    
   125   63  125 1    
   126   63  126 1    
   127   64   65 am   BACKBONE|DICT|INTERRES
   128   64  127 1    
   129   65   66 2    
@<TRIPOS>SUBSTRUCTURE
     1 UNK         1 GROUP             0       ****    0 ROOT    
