@<TRIPOS>MOLECULE
3R135
127   129    1
SMALL
USER_CHARGES


@<TRIPOS>ATOM
      1 CA        -84.0638   24.5021  -73.7929 C.3       0 UNK        -0.1998 
      2 C         -83.4288   25.8774  -73.9289 C.2       0 UNK         0.4909 
      3 O         -83.3210   26.3965  -75.0404 O.2       0 UNK        -0.5240 
      4 N         -83.0068   26.4755  -72.8081 N.am      1 UNK        -0.4739 
      5 CA        -82.2607   27.7371  -72.7680 C.3       1 UNK         0.0864 
      6 C6        -82.2476   28.3675  -71.3488 C.3       11 UNK        -0.0881 
      7 S7        -81.7805   27.2222  -69.9996 S.3       11 UNK        -0.2682 
      8 C8        -80.4331   28.1250  -69.1662 C.3       11 UNK         0.0289 
      9 C9        -79.1919   28.2406  -70.0388 C.ar      11 UNK        -0.0687 
     10 C10       -78.4959   27.0903  -70.4185 C.ar      11 UNK        -0.0823 
     11 C11       -77.3795   27.1686  -71.2547 C.ar      11 UNK        -0.0830 
     12 C12       -76.9486   28.4301  -71.6888 C.ar      11 UNK        -0.1021 
     13 C13       -77.6256   29.5930  -71.3057 C.ar      11 UNK        -0.0753 
     14 C14       -78.7478   29.4905  -70.4792 C.ar      11 UNK        -0.0933 
     15 C15       -77.2019   30.9528  -71.8480 C.3       11 UNK         0.0166 
     16 S16       -75.4058   31.2482  -71.7283 S.3       11 UNK        -0.2615 
     17 C17       -75.0826   31.9945  -73.3634 C.3       11 UNK        -0.0865 
     18 CA        -74.7047   30.9357  -74.4345 C.3       10 UNK         0.0862 
     19 C         -74.6880   31.5675  -75.8578 C.2       10 UNK         0.5551 
     20 N         -73.5624   31.6027  -76.5607 N.am      10 UNK        -0.7319 
     21 O         -75.7205   32.0344  -76.3315 O.2       10 UNK        -0.5018 
     22 N         -73.4778   30.2097  -74.0628 N.am      10 UNK        -0.4509 
     23 C         -73.1155   29.0166  -74.5482 C.2       10 UNK         0.4899 
     24 O         -73.7683   28.3873  -75.3795 O.2       10 UNK        -0.4839 
     25 CA        -71.7940   28.4497  -74.0125 C.3       9 UNK         0.0222 
     26 CB        -71.8530   28.2042  -72.4904 C.3       9 UNK        -0.1966 
     27 N         -71.4481   27.2029  -74.6976 N.am      9 UNK        -0.4218 
     28 C         -70.2012   26.7307  -74.8276 C.2       9 UNK         0.5020 
     29 O         -69.2011   27.3394  -74.4428 O.2       9 UNK        -0.5274 
     30 CA        -70.0143   25.3463  -75.4654 C.3       8 UNK         0.0270 
     31 CB        -70.2308   24.2464  -74.4116 C.3       8 UNK        -0.1976 
     32 N         -70.9212   25.1132  -76.5901 N.am      8 UNK        -0.4313 
     33 C         -70.5412   24.9576  -77.8658 C.2       8 UNK         0.5041 
     34 O         -69.3757   25.0707  -78.2496 O.2       8 UNK        -0.5577 
     35 CA        -71.6211   24.5750  -78.8979 C.3       7 UNK         0.0284 
     36 CB        -71.5181   23.0810  -79.2483 C.3       7 UNK        -0.1958 
     37 N         -72.9866   24.8633  -78.4558 N.am      7 UNK        -0.4454 
     38 C         -73.5318   26.0856  -78.4311 C.2       7 UNK         0.5089 
     39 O         -72.9627   27.0937  -78.8509 O.2       7 UNK        -0.5125 
     40 CA        -74.9490   26.2089  -77.8394 C.3       6 UNK         0.0408 
     41 CB        -75.9927   26.1862  -78.9669 C.3       6 UNK        -0.1791 
     42 N         -75.3241   25.2191  -76.8160 N.am      6 UNK        -0.4762 
     43 C         -74.6388   24.9243  -75.6989 C.2       6 UNK         0.5007 
     44 O         -73.4825   25.2957  -75.4941 O.2       6 UNK        -0.5032 
     45 CA        -75.3410   24.0506  -74.6394 C.3       5 UNK         0.0783 
     46 C46       -74.8690   24.3273  -73.1838 C.3       11 UNK        -0.0857 
     47 S47       -75.1585   26.0377  -72.6141 S.3       11 UNK        -0.2512 
     48 C48       -76.7245   25.8600  -71.6994 C.3       11 UNK         0.0225 
     49 N         -76.8033   24.0808  -74.7714 N.am      5 UNK        -0.4615 
     50 C         -77.5914   23.0264  -74.5141 C.2       4 UNK         0.5053 
     51 O         -77.1532   21.9229  -74.1870 O.2       4 UNK        -0.5105 
     52 CA        -79.1190   23.2004  -74.6212 C.3       4 UNK         0.0263 
     53 CB        -79.7665   23.2117  -73.2261 C.3       4 UNK        -0.1981 
     54 N         -79.5346   24.3955  -75.3566 N.am      4 UNK        -0.4224 
     55 C         -79.4472   24.5287  -76.6892 C.2       3 UNK         0.4895 
     56 O         -79.0108   23.6495  -77.4325 O.2       3 UNK        -0.5091 
     57 CA        -79.9022   25.8631  -77.3104 C.3       3 UNK         0.0250 
     58 CB        -81.2983   25.7144  -77.9353 C.3       3 UNK        -0.1996 
     59 N         -79.9060   26.9924  -76.3767 N.am      3 UNK        -0.4254 
     60 C         -78.8249   27.4734  -75.7446 C.2       2 UNK         0.5004 
     61 O         -77.6918   27.0187  -75.8910 O.2       2 UNK        -0.5226 
     62 CA        -79.0533   28.6171  -74.7415 C.3       2 UNK         0.0269 
     63 CB        -78.8598   29.9757  -75.4337 C.3       2 UNK        -0.1926 
     64 N         -80.3613   28.5913  -74.0712 N.am      2 UNK        -0.4687 
     65 C         -80.8475   27.5587  -73.3646 C.2       1 UNK         0.5165 
     66 O         -80.2464   26.4914  -73.2168 O.2       1 UNK        -0.5079 
     67 H67       -83.4959   23.7705  -74.3672 H         1 UNK         0.0900 
     68 H68       -85.0839   24.5200  -74.1754 H         1 UNK         0.0900 
     69 H69       -84.0949   24.1690  -72.7556 H         1 UNK         0.0900 
     70 H70       -83.0816   25.9979  -71.9209 H         1 UNK         0.2959 
     71 H71       -82.7921   28.4346  -73.4199 H         1 UNK         0.1079 
     72 H72       -81.6094   29.2527  -71.3288 H         1 UNK         0.0837 
     73 H73       -83.2487   28.7348  -71.1183 H         1 UNK         0.0837 
     74 H74       -80.1719   27.5972  -68.2480 H         1 UNK         0.0685 
     75 H75       -80.7944   29.1087  -68.8623 H         1 UNK         0.0685 
     76 H76       -78.8534   26.1235  -70.0905 H         1 UNK         0.1434 
     77 H77       -76.1041   28.5228  -72.3562 H         1 UNK         0.1329 
     78 H78       -79.2896   30.3825  -70.1959 H         1 UNK         0.1335 
     79 H79       -77.7191   31.7602  -71.3275 H         1 UNK         0.0680 
     80 H80       -77.5193   31.0038  -72.8887 H         1 UNK         0.0680 
     81 H81       -75.9597   32.5693  -73.6680 H         1 UNK         0.1032 
     82 H82       -74.2785   32.7245  -73.2554 H         1 UNK         0.1032 
     83 H83       -75.5123   30.2006  -74.4588 H         1 UNK         0.0461 
     84 H84       -73.5668   32.0118  -77.4816 H         1 UNK         0.3453 
     85 H85       -72.7140   31.2129  -76.1839 H         1 UNK         0.3453 
     86 H86       -72.8857   30.6642  -73.3837 H         1 UNK         0.2984 
     87 H87       -71.0246   29.1955  -74.2229 H         1 UNK         0.0554 
     88 H88       -70.8920   27.8629  -72.1056 H         1 UNK         0.0847 
     89 H89       -72.5974   27.4501  -72.2361 H         1 UNK         0.0847 
     90 H90       -72.1092   29.1117  -71.9430 H         1 UNK         0.0847 
     91 H91       -72.2420   26.6711  -75.0523 H         1 UNK         0.3141 
     92 H92       -68.9761   25.2838  -75.7984 H         1 UNK         0.0743 
     93 H93       -71.2527   24.2468  -74.0297 H         1 UNK         0.0784 
     94 H94       -70.0284   23.2581  -74.8247 H         1 UNK         0.0784 
     95 H95       -69.5635   24.3843  -73.5596 H         1 UNK         0.0784 
     96 H96       -71.9122   25.0631  -76.3599 H         1 UNK         0.3213 
     97 H97       -71.4218   25.1506  -79.8047 H         1 UNK         0.0855 
     98 H98       -71.7091   22.4480  -78.3807 H         1 UNK         0.0814 
     99 H99       -70.5214   22.8346  -79.6172 H         1 UNK         0.0814 
    100 H100      -72.2268   22.8059  -80.0296 H         1 UNK         0.0814 
    101 H101      -73.5297   24.0929  -78.0940 H         1 UNK         0.3105 
    102 H102      -75.0051   27.1874  -77.3603 H         1 UNK         0.0547 
    103 H103      -76.9753   26.4717  -78.5956 H         1 UNK         0.0837 
    104 H104      -75.7349   26.8933  -79.7568 H         1 UNK         0.0837 
    105 H105      -76.0746   25.1996  -79.4242 H         1 UNK         0.0837 
    106 H106      -76.2569   24.8417  -76.8988 H         1 UNK         0.3020 
    107 H107      -75.0047   23.0412  -74.8876 H         1 UNK         0.1245 
    108 H108      -73.7997   24.1275  -73.0957 H         1 UNK         0.0781 
    109 H109      -75.3480   23.6303  -72.4947 H         1 UNK         0.0781 
    110 H110      -77.4366   25.3306  -72.3316 H         1 UNK         0.0836 
    111 H111      -76.5464   25.2293  -70.8273 H         1 UNK         0.0836 
    112 H112      -77.2127   24.9753  -75.0185 H         1 UNK         0.3022 
    113 H113      -79.5013   22.3283  -75.1562 H         1 UNK         0.0747 
    114 H114      -80.8522   23.2853  -73.2923 H         1 UNK         0.0793 
    115 H115      -79.5369   22.2950  -72.6813 H         1 UNK         0.0793 
    116 H116      -79.4132   24.0456  -72.6201 H         1 UNK         0.0793 
    117 H117      -79.8719   25.1751  -74.8000 H         1 UNK         0.3047 
    118 H118      -79.2013   26.1032  -78.1107 H         1 UNK         0.0822 
    119 H119      -81.6143   26.6326  -78.4308 H         1 UNK         0.0807 
    120 H120      -82.0497   25.4587  -77.1879 H         1 UNK         0.0807 
    121 H121      -81.3066   24.9234  -78.6865 H         1 UNK         0.0807 
    122 H122      -80.8045   27.4037  -76.1662 H         1 UNK         0.2946 
    123 H123      -78.2908   28.5097  -73.9714 H         1 UNK         0.1144 
    124 H124      -78.9670   30.8037  -74.7339 H         1 UNK         0.0793 
    125 H125      -79.5809   30.1244  -76.2383 H         1 UNK         0.0793 
    126 H126      -77.8632   30.0499  -75.8719 H         1 UNK         0.0793 
    127 H127      -80.9209   29.4277  -74.1567 H         1 UNK         0.2896 
@<TRIPOS>BOND
     1    1    2 1    
     2    1   67 1    
     3    1   68 1    
     4    1   69 1    
     5    2    3 2    
     6    2    4 am   BACKBONE|DICT|INTERRES
     7    4    5 1    
     8    4   70 1    
     9    5    6 1    
    10    5   65 1    
    11    5   71 1    
    12    6    7 1    
    13    6   72 1    
    14    6   73 1    
    15    7    8 1    
    16    8    9 1    
    17    8   74 1    
    18    8   75 1    
    19    9   10 ar   
    20    9   14 ar   
    21   10   11 ar   
    22   10   76 1    
    23   11   12 ar   
    24   11   48 1    
    25   12   13 ar   
    26   12   77 1    
    27   13   14 ar   
    28   13   15 1    
    29   14   78 1    
    30   15   16 1    
    31   15   79 1    
    32   15   80 1    
    33   16   17 1    
    34   17   18 1    
    35   17   81 1    
    36   17   82 1    
    37   18   19 1    
    38   18   22 1    
    39   18   83 1    
    40   19   20 am   BACKBONE|DICT|INTERRES
    41   19   21 2    
    42   20   84 1    
    43   20   85 1    
    44   22   23 am   BACKBONE|DICT|INTERRES
    45   22   86 1    
    46   23   24 2    
    47   23   25 1    
    48   25   26 1    
    49   25   27 1    
    50   25   87 1    
    51   26   88 1    
    52   26   89 1    
    53   26   90 1    
    54   27   28 am   BACKBONE|DICT|INTERRES
    55   27   91 1    
    56   28   29 2    
    57   28   30 1    
    58   30   31 1    
    59   30   32 1    
    60   30   92 1    
    61   31   93 1    
    62   31   94 1    
    63   31   95 1    
    64   32   33 am   BACKBONE|DICT|INTERRES
    65   32   96 1    
    66   33   34 2    
    67   33   35 1    
    68   35   36 1    
    69   35   37 1    
    70   35   97 1    
    71   36   98 1    
    72   36   99 1    
    73   36  100 1    
    74   37   38 am   BACKBONE|DICT|INTERRES
    75   37  101 1    
    76   38   39 2    
    77   38   40 1    
    78   40   41 1    
    79   40   42 1    
    80   40  102 1    
    81   41  103 1    
    82   41  104 1    
    83   41  105 1    
    84   42   43 am   BACKBONE|DICT|INTERRES
    85   42  106 1    
    86   43   44 2    
    87   43   45 1    
    88   45   46 1    
    89   45   49 1    
    90   45  107 1    
    91   46   47 1    
    92   46  108 1    
    93   46  109 1    
    94   47   48 1    
    95   48  110 1    
    96   48  111 1    
    97   49   50 am   BACKBONE|DICT|INTERRES
    98   49  112 1    
    99   50   51 2    
   100   50   52 1    
   101   52   53 1    
   102   52   54 1    
   103   52  113 1    
   104   53  114 1    
   105   53  115 1    
   106   53  116 1    
   107   54   55 am   BACKBONE|DICT|INTERRES
   108   54  117 1    
   109   55   56 2    
   110   55   57 1    
   111   57   58 1    
   112   57   59 1    
   113   57  118 1    
   114   58  119 1    
   115   58  120 1    
   116   58  121 1    
   117   59   60 am   BACKBONE|DICT|INTERRES
   118   59  122 1    
   119   60   61 2    
   120   60   62 1    
   121   62   63 1    
   122   62   64 1    
   123   62  123 1    
   124   63  124 1    
   125   63  125 1    
   126   63  126 1    
   127   64   65 am   BACKBONE|DICT|INTERRES
   128   64  127 1    
   129   65   66 2    
@<TRIPOS>SUBSTRUCTURE
     1 UNK         1 GROUP             0       ****    0 ROOT    
