@<TRIPOS>MOLECULE
3R135
127   129    1
SMALL
USER_CHARGES


@<TRIPOS>ATOM
      1 CA        -80.6820   21.9499  -72.4198 C.3       0 UNK        -0.1998 
      2 C         -81.2406   23.3157  -72.7877 C.2       0 UNK         0.4909 
      3 O         -81.9638   23.4358  -73.7771 O.2       0 UNK        -0.5240 
      4 N         -80.8980   24.3486  -72.0064 N.am      1 UNK        -0.4739 
      5 CA        -81.2931   25.7474  -72.2076 C.3       1 UNK         0.0864 
      6 C6        -80.8094   26.6187  -71.0240 C.3       11 UNK        -0.0881 
      7 S7        -81.5639   28.2787  -71.0106 S.3       11 UNK        -0.2682 
      8 C8        -80.2526   29.2617  -70.2142 C.3       11 UNK         0.0289 
      9 C9        -79.0097   29.3991  -71.0848 C.ar      11 UNK        -0.0687 
     10 C10       -79.0614   30.1420  -72.2683 C.ar      11 UNK        -0.0823 
     11 C11       -77.9205   30.3039  -73.0608 C.ar      11 UNK        -0.0830 
     12 C12       -76.7162   29.7260  -72.6471 C.ar      11 UNK        -0.1021 
     13 C13       -76.6534   28.9692  -71.4751 C.ar      11 UNK        -0.0753 
     14 C14       -77.8026   28.8080  -70.6960 C.ar      11 UNK        -0.0933 
     15 C15       -75.3351   28.3417  -71.0567 C.3       11 UNK         0.0166 
     16 S16       -74.3495   29.5236  -70.0885 S.3       11 UNK        -0.2615 
     17 C17       -72.6644   28.8583  -70.3051 C.3       11 UNK        -0.0865 
     18 CA        -71.8498   29.6683  -71.3497 C.3       10 UNK         0.0862 
     19 C         -70.3386   29.2925  -71.3098 C.2       10 UNK         0.5551 
     20 N         -69.7180   28.8957  -72.4143 N.am      10 UNK        -0.7319 
     21 O         -69.7133   29.3739  -70.2553 O.2       10 UNK        -0.5018 
     22 N         -72.4581   29.5815  -72.6878 N.am      10 UNK        -0.4509 
     23 C         -72.3746   30.5072  -73.6480 C.2       10 UNK         0.4899 
     24 O         -71.7908   31.5838  -73.5160 O.2       10 UNK        -0.4839 
     25 CA        -73.0313   30.1370  -74.9930 C.3       9 UNK         0.0222 
     26 CB        -73.0528   31.3096  -75.9902 C.3       9 UNK        -0.1966 
     27 N         -72.3722   28.9859  -75.6183 N.am      9 UNK        -0.4218 
     28 C         -72.5414   27.7104  -75.2482 C.2       9 UNK         0.5020 
     29 O         -73.2675   27.3653  -74.3138 O.2       9 UNK        -0.5274 
     30 CA        -71.7248   26.6557  -75.9998 C.3       8 UNK         0.0270 
     31 CB        -70.6301   26.0640  -75.0908 C.3       8 UNK        -0.1976 
     32 N         -72.6218   25.6059  -76.4760 N.am      8 UNK        -0.4313 
     33 C         -72.3439   24.7541  -77.4716 C.2       8 UNK         0.5041 
     34 O         -71.2661   24.7259  -78.0683 O.2       8 UNK        -0.5577 
     35 CA        -73.4596   23.7882  -77.9014 C.3       7 UNK         0.0284 
     36 CB        -73.6575   22.6587  -76.8761 C.3       7 UNK        -0.1958 
     37 N         -74.7185   24.5006  -78.1222 N.am      7 UNK        -0.4454 
     38 C         -75.0065   25.1894  -79.2361 C.2       7 UNK         0.5089 
     39 O         -74.2799   25.2157  -80.2303 O.2       7 UNK        -0.5125 
     40 CA        -76.3225   25.9901  -79.2580 C.3       6 UNK         0.0408 
     41 CB        -77.4492   25.1518  -79.8813 C.3       6 UNK        -0.1791 
     42 N         -76.7464   26.4664  -77.9400 N.am      6 UNK        -0.4762 
     43 C         -76.0765   27.3549  -77.1905 C.2       6 UNK         0.5007 
     44 O         -75.0454   27.9191  -77.5567 O.2       6 UNK        -0.5032 
     45 CA        -76.6391   27.6215  -75.7780 C.3       5 UNK         0.0783 
     46 C46       -77.7669   28.6860  -75.8265 C.3       11 UNK        -0.0857 
     47 S47       -77.0947   30.3815  -75.7584 S.3       11 UNK        -0.2512 
     48 C48       -78.0073   31.1117  -74.3536 C.3       11 UNK         0.0225 
     49 N         -77.0755   26.3931  -75.1014 N.am      5 UNK        -0.4615 
     50 C         -76.3200   25.3052  -74.8872 C.2       4 UNK         0.5053 
     51 O         -75.1413   25.2095  -75.2183 O.2       4 UNK        -0.5105 
     52 CA        -77.0206   24.0797  -74.2850 C.3       4 UNK         0.0263 
     53 CB        -77.1971   24.2183  -72.7636 C.3       4 UNK        -0.1981 
     54 N         -78.3098   23.8538  -74.9397 N.am      4 UNK        -0.4224 
     55 C         -78.4379   23.3585  -76.1809 C.2       3 UNK         0.4895 
     56 O         -77.4952   22.9262  -76.8438 O.2       3 UNK        -0.5091 
     57 CA        -79.8425   23.3797  -76.8082 C.3       3 UNK         0.0250 
     58 CB        -80.5595   22.0381  -76.5917 C.3       3 UNK        -0.1996 
     59 N         -80.6706   24.4783  -76.3018 N.am      3 UNK        -0.4254 
     60 C         -80.4777   25.7658  -76.6293 C.2       2 UNK         0.5004 
     61 O         -79.6164   26.1425  -77.4233 O.2       2 UNK        -0.5226 
     62 CA        -81.3491   26.8169  -75.9165 C.3       2 UNK         0.0269 
     63 CB        -82.6417   27.0711  -76.7070 C.3       2 UNK        -0.1926 
     64 N         -81.6822   26.4604  -74.5332 N.am      2 UNK        -0.4687 
     65 C         -80.7752   26.2645  -73.5662 C.2       1 UNK         0.5165 
     66 O         -79.5643   26.4051  -73.7395 O.2       1 UNK        -0.5079 
     67 H67       -81.4805   21.2085  -72.4080 H         1 UNK         0.0900 
     68 H68       -79.9371   21.6383  -73.1515 H         1 UNK         0.0900 
     69 H69       -80.2115   21.9544  -71.4367 H         1 UNK         0.0900 
     70 H70       -80.2896   24.1819  -71.2177 H         1 UNK         0.2959 
     71 H71       -82.3850   25.7707  -72.2206 H         1 UNK         0.1079 
     72 H72       -79.7208   26.6956  -71.0273 H         1 UNK         0.0837 
     73 H73       -81.0723   26.1421  -70.0782 H         1 UNK         0.0837 
     74 H74       -80.6439   30.2566  -69.9972 H         1 UNK         0.0685 
     75 H75       -80.0066   28.8142  -69.2499 H         1 UNK         0.0685 
     76 H76       -79.9972   30.5933  -72.5693 H         1 UNK         0.1434 
     77 H77       -75.8233   29.8590  -73.2399 H         1 UNK         0.1329 
     78 H78       -77.7522   28.2333  -69.7814 H         1 UNK         0.1335 
     79 H79       -75.5067   27.4401  -70.4667 H         1 UNK         0.0680 
     80 H80       -74.7842   28.0292  -71.9452 H         1 UNK         0.0680 
     81 H81       -72.1802   28.8970  -69.3273 H         1 UNK         0.1032 
     82 H82       -72.7052   27.8018  -70.5768 H         1 UNK         0.1032 
     83 H83       -71.8865   30.7150  -71.0414 H         1 UNK         0.0461 
     84 H84       -70.2168   28.8515  -73.2865 H         1 UNK         0.3453 
     85 H85       -68.7385   28.6622  -72.3742 H         1 UNK         0.3453 
     86 H86       -72.8967   28.6984  -72.9319 H         1 UNK         0.2984 
     87 H87       -74.0692   29.8706  -74.7864 H         1 UNK         0.0554 
     88 H88       -73.5630   32.1741  -75.5632 H         1 UNK         0.0847 
     89 H89       -73.5867   31.0412  -76.9023 H         1 UNK         0.0847 
     90 H90       -72.0470   31.6272  -76.2680 H         1 UNK         0.0847 
     91 H91       -71.7354   29.1917  -76.3749 H         1 UNK         0.3141 
     92 H92       -71.2521   27.1272  -76.8642 H         1 UNK         0.0743 
     93 H93       -71.0591   25.5589  -74.2242 H         1 UNK         0.0784 
     94 H94       -70.0120   25.3426  -75.6252 H         1 UNK         0.0784 
     95 H95       -69.9648   26.8440  -74.7195 H         1 UNK         0.0784 
     96 H96       -73.5332   25.5655  -76.0148 H         1 UNK         0.3213 
     97 H97       -73.1547   23.3239  -78.8422 H         1 UNK         0.0855 
     98 H98       -73.9187   23.0362  -75.8880 H         1 UNK         0.0814 
     99 H99       -72.7436   22.0737  -76.7660 H         1 UNK         0.0814 
    100 H100      -74.4459   21.9740  -77.1894 H         1 UNK         0.0814 
    101 H101      -75.3538   24.5589  -77.3362 H         1 UNK         0.3105 
    102 H102      -76.1632   26.8671  -79.8886 H         1 UNK         0.0547 
    103 H103      -77.1797   24.8201  -80.8849 H         1 UNK         0.0837 
    104 H104      -77.6622   24.2608  -79.2900 H         1 UNK         0.0837 
    105 H105      -78.3720   25.7259  -79.9668 H         1 UNK         0.0837 
    106 H106      -77.6373   26.1200  -77.5945 H         1 UNK         0.3020 
    107 H107      -75.8135   28.0042  -75.1739 H         1 UNK         0.1245 
    108 H108      -78.4505   28.5470  -74.9889 H         1 UNK         0.0781 
    109 H109      -78.3890   28.5840  -76.7180 H         1 UNK         0.0781 
    110 H110      -79.0486   31.2359  -74.6553 H         1 UNK         0.0836 
    111 H111      -77.6192   32.1136  -74.1665 H         1 UNK         0.0836 
    112 H112      -78.0255   26.3942  -74.7363 H         1 UNK         0.3022 
    113 H113      -76.3866   23.2086  -74.4663 H         1 UNK         0.0747 
    114 H114      -77.6951   23.3460  -72.3408 H         1 UNK         0.0793 
    115 H115      -76.2269   24.3062  -72.2728 H         1 UNK         0.0793 
    116 H116      -77.7730   25.1013  -72.4891 H         1 UNK         0.0793 
    117 H117      -79.1213   24.2574  -74.4939 H         1 UNK         0.3047 
    118 H118      -79.7166   23.5200  -77.8842 H         1 UNK         0.0822 
    119 H119      -81.5379   22.0291  -77.0724 H         1 UNK         0.0807 
    120 H120      -80.7041   21.8176  -75.5346 H         1 UNK         0.0807 
    121 H121      -79.9822   21.2165  -77.0179 H         1 UNK         0.0807 
    122 H122      -81.3695   24.2443  -75.6033 H         1 UNK         0.2946 
    123 H123      -80.7762   27.7463  -75.8892 H         1 UNK         0.1144 
    124 H124      -83.2244   27.8800  -76.2658 H         1 UNK         0.0793 
    125 H125      -83.2735   26.1828  -76.7461 H         1 UNK         0.0793 
    126 H126      -82.4190   27.3587  -77.7357 H         1 UNK         0.0793 
    127 H127      -82.6566   26.2864  -74.3314 H         1 UNK         0.2896 
@<TRIPOS>BOND
     1    1    2 1    
     2    1   67 1    
     3    1   68 1    
     4    1   69 1    
     5    2    3 2    
     6    2    4 am   BACKBONE|DICT|INTERRES
     7    4    5 1    
     8    4   70 1    
     9    5    6 1    
    10    5   65 1    
    11    5   71 1    
    12    6    7 1    
    13    6   72 1    
    14    6   73 1    
    15    7    8 1    
    16    8    9 1    
    17    8   74 1    
    18    8   75 1    
    19    9   10 ar   
    20    9   14 ar   
    21   10   11 ar   
    22   10   76 1    
    23   11   12 ar   
    24   11   48 1    
    25   12   13 ar   
    26   12   77 1    
    27   13   14 ar   
    28   13   15 1    
    29   14   78 1    
    30   15   16 1    
    31   15   79 1    
    32   15   80 1    
    33   16   17 1    
    34   17   18 1    
    35   17   81 1    
    36   17   82 1    
    37   18   19 1    
    38   18   22 1    
    39   18   83 1    
    40   19   20 am   BACKBONE|DICT|INTERRES
    41   19   21 2    
    42   20   84 1    
    43   20   85 1    
    44   22   23 am   BACKBONE|DICT|INTERRES
    45   22   86 1    
    46   23   24 2    
    47   23   25 1    
    48   25   26 1    
    49   25   27 1    
    50   25   87 1    
    51   26   88 1    
    52   26   89 1    
    53   26   90 1    
    54   27   28 am   BACKBONE|DICT|INTERRES
    55   27   91 1    
    56   28   29 2    
    57   28   30 1    
    58   30   31 1    
    59   30   32 1    
    60   30   92 1    
    61   31   93 1    
    62   31   94 1    
    63   31   95 1    
    64   32   33 am   BACKBONE|DICT|INTERRES
    65   32   96 1    
    66   33   34 2    
    67   33   35 1    
    68   35   36 1    
    69   35   37 1    
    70   35   97 1    
    71   36   98 1    
    72   36   99 1    
    73   36  100 1    
    74   37   38 am   BACKBONE|DICT|INTERRES
    75   37  101 1    
    76   38   39 2    
    77   38   40 1    
    78   40   41 1    
    79   40   42 1    
    80   40  102 1    
    81   41  103 1    
    82   41  104 1    
    83   41  105 1    
    84   42   43 am   BACKBONE|DICT|INTERRES
    85   42  106 1    
    86   43   44 2    
    87   43   45 1    
    88   45   46 1    
    89   45   49 1    
    90   45  107 1    
    91   46   47 1    
    92   46  108 1    
    93   46  109 1    
    94   47   48 1    
    95   48  110 1    
    96   48  111 1    
    97   49   50 am   BACKBONE|DICT|INTERRES
    98   49  112 1    
    99   50   51 2    
   100   50   52 1    
   101   52   53 1    
   102   52   54 1    
   103   52  113 1    
   104   53  114 1    
   105   53  115 1    
   106   53  116 1    
   107   54   55 am   BACKBONE|DICT|INTERRES
   108   54  117 1    
   109   55   56 2    
   110   55   57 1    
   111   57   58 1    
   112   57   59 1    
   113   57  118 1    
   114   58  119 1    
   115   58  120 1    
   116   58  121 1    
   117   59   60 am   BACKBONE|DICT|INTERRES
   118   59  122 1    
   119   60   61 2    
   120   60   62 1    
   121   62   63 1    
   122   62   64 1    
   123   62  123 1    
   124   63  124 1    
   125   63  125 1    
   126   63  126 1    
   127   64   65 am   BACKBONE|DICT|INTERRES
   128   64  127 1    
   129   65   66 2    
@<TRIPOS>SUBSTRUCTURE
     1 UNK         1 GROUP             0       ****    0 ROOT    
