@<TRIPOS>MOLECULE
3R135
127   129    1
SMALL
USER_CHARGES


@<TRIPOS>ATOM
      1 CA        -78.4606   26.9411  -73.8286 C.3       0 UNK        -0.1998 
      2 C         -79.7431   26.5576  -73.1059 C.2       0 UNK         0.4909 
      3 O         -80.8118   26.5541  -73.7157 O.2       0 UNK        -0.5240 
      4 N         -79.6414   26.2447  -71.8062 N.am      1 UNK        -0.4739 
      5 CA        -80.7525   25.8755  -70.9137 C.3       1 UNK         0.0864 
      6 C6        -81.8133   26.9993  -70.7352 C.3       11 UNK        -0.0881 
      7 S7        -81.1185   28.5528  -70.0722 S.3       11 UNK        -0.2682 
      8 C8        -81.1073   29.6569  -71.5341 C.3       11 UNK         0.0289 
      9 C9        -79.7274   29.9706  -72.1207 C.ar      11 UNK        -0.0687 
     10 C10       -79.6530   30.4848  -73.4217 C.ar      11 UNK        -0.0823 
     11 C11       -78.4263   30.8626  -73.9800 C.ar      11 UNK        -0.0830 
     12 C12       -77.2604   30.7145  -73.2226 C.ar      11 UNK        -0.1021 
     13 C13       -77.3132   30.1964  -71.9271 C.ar      11 UNK        -0.0753 
     14 C14       -78.5449   29.8267  -71.3815 C.ar      11 UNK        -0.0933 
     15 C15       -76.0400   30.0837  -71.1058 C.3       11 UNK         0.0166 
     16 S16       -75.0944   28.5990  -71.5526 S.3       11 UNK        -0.2615 
     17 C17       -73.5239   28.9491  -70.6888 C.3       11 UNK        -0.0865 
     18 CA        -72.5238   29.7504  -71.5654 C.3       10 UNK         0.0862 
     19 C         -71.2569   30.1489  -70.7541 C.2       10 UNK         0.5551 
     20 N         -70.0573   29.7328  -71.1422 N.am      10 UNK        -0.7319 
     21 O         -71.3661   30.8573  -69.7563 O.2       10 UNK        -0.5018 
     22 N         -72.2433   29.0533  -72.8285 N.am      10 UNK        -0.4509 
     23 C         -71.8649   29.6227  -73.9762 C.2       10 UNK         0.4899 
     24 O         -71.6791   30.8327  -74.1073 O.2       10 UNK        -0.4839 
     25 CA        -71.6734   28.7019  -75.1981 C.3       9 UNK         0.0222 
     26 CB        -70.1973   28.2894  -75.3557 C.3       9 UNK        -0.1966 
     27 N         -72.5652   27.5319  -75.2501 N.am      9 UNK        -0.4218 
     28 C         -72.6087   26.4613  -74.4410 C.2       9 UNK         0.5020 
     29 O         -71.8811   26.3087  -73.4589 O.2       9 UNK        -0.5274 
     30 CA        -73.6625   25.3895  -74.7599 C.3       8 UNK         0.0270 
     31 CB        -75.0211   25.7817  -74.1580 C.3       8 UNK        -0.1976 
     32 N         -73.8187   25.1429  -76.1935 N.am      8 UNK        -0.4313 
     33 C         -72.8844   24.6061  -76.9912 C.2       8 UNK         0.5041 
     34 O         -71.7763   24.2337  -76.6035 O.2       8 UNK        -0.5577 
     35 CA        -73.2499   24.4619  -78.4757 C.3       7 UNK         0.0284 
     36 CB        -74.1234   23.2166  -78.7039 C.3       7 UNK        -0.1958 
     37 N         -73.9418   25.6538  -78.9701 N.am      7 UNK        -0.4454 
     38 C         -73.3199   26.7611  -79.3993 C.2       7 UNK         0.5089 
     39 O         -72.0968   26.8669  -79.4928 O.2       7 UNK        -0.5125 
     40 CA        -74.2047   27.9593  -79.7955 C.3       6 UNK         0.0408 
     41 CB        -74.4769   27.9445  -81.3081 C.3       6 UNK        -0.1791 
     42 N         -75.4808   28.0218  -79.0763 N.am      6 UNK        -0.4762 
     43 C         -75.6037   28.2397  -77.7582 C.2       6 UNK         0.5007 
     44 O         -74.6453   28.4042  -77.0030 O.2       6 UNK        -0.5032 
     45 CA        -77.0343   28.1745  -77.1754 C.3       5 UNK         0.0783 
     46 C46       -77.8015   29.5138  -77.3091 C.3       11 UNK        -0.0857 
     47 S47       -77.0303   30.9134  -76.4264 S.3       11 UNK        -0.2512 
     48 C48       -78.3802   31.5212  -75.3566 C.3       11 UNK         0.0225 
     49 N         -77.8189   27.0693  -77.7463 N.am      5 UNK        -0.4615 
     50 C         -77.4709   25.7779  -77.7028 C.2       4 UNK         0.5053 
     51 O         -76.4184   25.3707  -77.2082 O.2       4 UNK        -0.5105 
     52 CA        -78.4278   24.7674  -78.3532 C.3       4 UNK         0.0263 
     53 CB        -77.9123   24.3561  -79.7418 C.3       4 UNK        -0.1981 
     54 N         -78.5466   23.5818  -77.5024 N.am      4 UNK        -0.4224 
     55 C         -79.1935   23.5891  -76.3308 C.2       3 UNK         0.4895 
     56 O         -79.9081   24.5227  -75.9592 O.2       3 UNK        -0.5091 
     57 CA        -78.9893   22.3788  -75.4095 C.3       3 UNK         0.0250 
     58 CB        -77.5007   22.1893  -75.0465 C.3       3 UNK        -0.1996 
     59 N         -79.7753   22.6031  -74.1985 N.am      3 UNK        -0.4254 
     60 C         -80.1286   21.6881  -73.2909 C.2       2 UNK         0.5004 
     61 O         -79.8215   20.4973  -73.3691 O.2       2 UNK        -0.5226 
     62 CA        -80.9495   22.1963  -72.0928 C.3       2 UNK         0.0269 
     63 CB        -80.8550   21.2710  -70.8631 C.3       2 UNK        -0.1926 
     64 N         -80.5495   23.5572  -71.7172 N.am      2 UNK        -0.4687 
     65 C         -81.3865   24.5153  -71.2961 C.2       1 UNK         0.5165 
     66 O         -82.6040   24.3480  -71.1951 O.2       1 UNK        -0.5079 
     67 H67       -78.6180   27.8585  -74.3941 H         1 UNK         0.0900 
     68 H68       -78.1689   26.1553  -74.5244 H         1 UNK         0.0900 
     69 H69       -77.6380   27.1148  -73.1347 H         1 UNK         0.0900 
     70 H70       -78.7338   26.2854  -71.3636 H         1 UNK         0.2959 
     71 H71       -80.3019   25.7067  -69.9343 H         1 UNK         0.1079 
     72 H72       -82.3472   27.1853  -71.6677 H         1 UNK         0.0837 
     73 H73       -82.5774   26.6799  -70.0240 H         1 UNK         0.0837 
     74 H74       -81.5640   30.6020  -71.2379 H         1 UNK         0.0685 
     75 H75       -81.7493   29.2456  -72.3139 H         1 UNK         0.0685 
     76 H76       -80.5627   30.6223  -73.9905 H         1 UNK         0.1434 
     77 H77       -76.3077   31.0212  -73.6327 H         1 UNK         0.1329 
     78 H78       -78.5739   29.4508  -70.3691 H         1 UNK         0.1335 
     79 H79       -76.2695   30.0582  -70.0394 H         1 UNK         0.0680 
     80 H80       -75.4265   30.9711  -71.2688 H         1 UNK         0.0680 
     81 H81       -73.7431   29.4820  -69.7613 H         1 UNK         0.1032 
     82 H82       -73.0819   27.9972  -70.3888 H         1 UNK         0.1032 
     83 H83       -73.0078   30.6947  -71.8215 H         1 UNK         0.0461 
     84 H84       -69.9626   29.1521  -71.9597 H         1 UNK         0.3453 
     85 H85       -69.2432   30.0005  -70.6119 H         1 UNK         0.3453 
     86 H86       -72.3045   28.0399  -72.8099 H         1 UNK         0.2984 
     87 H87       -71.9396   29.2977  -76.0727 H         1 UNK         0.0554 
     88 H88       -70.0457   27.7046  -76.2632 H         1 UNK         0.0847 
     89 H89       -69.8455   27.6953  -74.5119 H         1 UNK         0.0847 
     90 H90       -69.5533   29.1671  -75.4242 H         1 UNK         0.0847 
     91 H91       -73.2861   27.6008  -75.9661 H         1 UNK         0.3141 
     92 H92       -73.3393   24.4550  -74.2967 H         1 UNK         0.0743 
     93 H93       -74.9496   25.8921  -73.0752 H         1 UNK         0.0784 
     94 H94       -75.3813   26.7295  -74.5594 H         1 UNK         0.0784 
     95 H95       -75.7784   25.0248  -74.3576 H         1 UNK         0.0784 
     96 H96       -74.7329   25.3511  -76.5931 H         1 UNK         0.3213 
     97 H97       -72.3235   24.3274  -79.0388 H         1 UNK         0.0855 
     98 H98       -75.0546   23.2592  -78.1385 H         1 UNK         0.0814 
     99 H99       -73.5975   22.3138  -78.3907 H         1 UNK         0.0814 
    100 H100      -74.3737   23.0951  -79.7579 H         1 UNK         0.0814 
    101 H101      -74.9469   25.6739  -78.8661 H         1 UNK         0.3105 
    102 H102      -73.6467   28.8681  -79.5600 H         1 UNK         0.0547 
    103 H103      -75.0537   27.0685  -81.6074 H         1 UNK         0.0837 
    104 H104      -75.0247   28.8329  -81.6227 H         1 UNK         0.0837 
    105 H105      -73.5431   27.9268  -81.8719 H         1 UNK         0.0837 
    106 H106      -76.3200   27.8790  -79.6198 H         1 UNK         0.3020 
    107 H107      -76.9179   27.9628  -76.1111 H         1 UNK         0.1245 
    108 H108      -78.8172   29.3843  -76.9320 H         1 UNK         0.0781 
    109 H109      -77.9072   29.7917  -78.3594 H         1 UNK         0.0781 
    110 H110      -78.2346   32.5918  -75.2072 H         1 UNK         0.0836 
    111 H111      -79.3342   31.4200  -75.8762 H         1 UNK         0.0836 
    112 H112      -78.6970   27.3204  -78.1773 H         1 UNK         0.3022 
    113 H113      -79.4142   25.2227  -78.4667 H         1 UNK         0.0747 
    114 H114      -77.8277   25.2217  -80.4002 H         1 UNK         0.0793 
    115 H115      -78.5916   23.6516  -80.2222 H         1 UNK         0.0793 
    116 H116      -76.9288   23.8886  -79.6901 H         1 UNK         0.0793 
    117 H117      -77.9579   22.7953  -77.7339 H         1 UNK         0.3047 
    118 H118      -79.3650   21.4913  -75.9228 H         1 UNK         0.0822 
    119 H119      -76.8868   22.0232  -75.9321 H         1 UNK         0.0807 
    120 H120      -77.3548   21.3273  -74.3956 H         1 UNK         0.0807 
    121 H121      -77.1017   23.0636  -74.5325 H         1 UNK         0.0807 
    122 H122      -80.1291   23.5504  -74.1177 H         1 UNK         0.2946 
    123 H123      -81.9877   22.2024  -72.4333 H         1 UNK         0.1144 
    124 H124      -81.1944   20.2621  -71.1014 H         1 UNK         0.0793 
    125 H125      -81.4781   21.6329  -70.0452 H         1 UNK         0.0793 
    126 H126      -79.8306   21.1950  -70.4967 H         1 UNK         0.0793 
    127 H127      -79.5645   23.7722  -71.7934 H         1 UNK         0.2896 
@<TRIPOS>BOND
     1    1    2 1    
     2    1   67 1    
     3    1   68 1    
     4    1   69 1    
     5    2    3 2    
     6    2    4 am   BACKBONE|DICT|INTERRES
     7    4    5 1    
     8    4   70 1    
     9    5    6 1    
    10    5   65 1    
    11    5   71 1    
    12    6    7 1    
    13    6   72 1    
    14    6   73 1    
    15    7    8 1    
    16    8    9 1    
    17    8   74 1    
    18    8   75 1    
    19    9   10 ar   
    20    9   14 ar   
    21   10   11 ar   
    22   10   76 1    
    23   11   12 ar   
    24   11   48 1    
    25   12   13 ar   
    26   12   77 1    
    27   13   14 ar   
    28   13   15 1    
    29   14   78 1    
    30   15   16 1    
    31   15   79 1    
    32   15   80 1    
    33   16   17 1    
    34   17   18 1    
    35   17   81 1    
    36   17   82 1    
    37   18   19 1    
    38   18   22 1    
    39   18   83 1    
    40   19   20 am   BACKBONE|DICT|INTERRES
    41   19   21 2    
    42   20   84 1    
    43   20   85 1    
    44   22   23 am   BACKBONE|DICT|INTERRES
    45   22   86 1    
    46   23   24 2    
    47   23   25 1    
    48   25   26 1    
    49   25   27 1    
    50   25   87 1    
    51   26   88 1    
    52   26   89 1    
    53   26   90 1    
    54   27   28 am   BACKBONE|DICT|INTERRES
    55   27   91 1    
    56   28   29 2    
    57   28   30 1    
    58   30   31 1    
    59   30   32 1    
    60   30   92 1    
    61   31   93 1    
    62   31   94 1    
    63   31   95 1    
    64   32   33 am   BACKBONE|DICT|INTERRES
    65   32   96 1    
    66   33   34 2    
    67   33   35 1    
    68   35   36 1    
    69   35   37 1    
    70   35   97 1    
    71   36   98 1    
    72   36   99 1    
    73   36  100 1    
    74   37   38 am   BACKBONE|DICT|INTERRES
    75   37  101 1    
    76   38   39 2    
    77   38   40 1    
    78   40   41 1    
    79   40   42 1    
    80   40  102 1    
    81   41  103 1    
    82   41  104 1    
    83   41  105 1    
    84   42   43 am   BACKBONE|DICT|INTERRES
    85   42  106 1    
    86   43   44 2    
    87   43   45 1    
    88   45   46 1    
    89   45   49 1    
    90   45  107 1    
    91   46   47 1    
    92   46  108 1    
    93   46  109 1    
    94   47   48 1    
    95   48  110 1    
    96   48  111 1    
    97   49   50 am   BACKBONE|DICT|INTERRES
    98   49  112 1    
    99   50   51 2    
   100   50   52 1    
   101   52   53 1    
   102   52   54 1    
   103   52  113 1    
   104   53  114 1    
   105   53  115 1    
   106   53  116 1    
   107   54   55 am   BACKBONE|DICT|INTERRES
   108   54  117 1    
   109   55   56 2    
   110   55   57 1    
   111   57   58 1    
   112   57   59 1    
   113   57  118 1    
   114   58  119 1    
   115   58  120 1    
   116   58  121 1    
   117   59   60 am   BACKBONE|DICT|INTERRES
   118   59  122 1    
   119   60   61 2    
   120   60   62 1    
   121   62   63 1    
   122   62   64 1    
   123   62  123 1    
   124   63  124 1    
   125   63  125 1    
   126   63  126 1    
   127   64   65 am   BACKBONE|DICT|INTERRES
   128   64  127 1    
   129   65   66 2    
@<TRIPOS>SUBSTRUCTURE
     1 UNK         1 GROUP             0       ****    0 ROOT    
