@<TRIPOS>MOLECULE
3R135
127   129    1
SMALL
USER_CHARGES


@<TRIPOS>ATOM
      1 CA        -82.2748   25.7708  -69.9147 C.3       0 UNK        -0.1998 
      2 C         -82.8587   26.0953  -71.2816 C.2       0 UNK         0.4909 
      3 O         -84.0605   25.9295  -71.4909 O.2       0 UNK        -0.5240 
      4 N         -82.0135   26.5497  -72.2162 N.am      1 UNK        -0.4739 
      5 CA        -82.3990   26.9204  -73.5867 C.3       1 UNK         0.0864 
      6 C6        -81.4332   27.9703  -74.1933 C.3       11 UNK        -0.0881 
      7 S7        -81.5393   29.5618  -73.3077 S.3       11 UNK        -0.2682 
      8 C8        -79.9604   30.3527  -73.7750 C.3       11 UNK         0.0289 
      9 C9        -78.7205   29.9132  -72.9904 C.ar      11 UNK        -0.0687 
     10 C10       -78.7325   28.8762  -72.0472 C.ar      11 UNK        -0.0823 
     11 C11       -77.5749   28.5321  -71.3426 C.ar      11 UNK        -0.0830 
     12 C12       -76.3913   29.2372  -71.5790 C.ar      11 UNK        -0.1021 
     13 C13       -76.3620   30.2770  -72.5118 C.ar      11 UNK        -0.0753 
     14 C14       -77.5254   30.6038  -73.2142 C.ar      11 UNK        -0.0933 
     15 C15       -75.0885   31.0760  -72.7398 C.3       11 UNK         0.0166 
     16 S16       -74.2396   30.5651  -74.2638 S.3       11 UNK        -0.2615 
     17 C17       -72.9373   31.8407  -74.3730 C.3       11 UNK        -0.0865 
     18 CA        -71.5066   31.3146  -74.0921 C.3       10 UNK         0.0862 
     19 C         -71.2936   30.9114  -72.6016 C.2       10 UNK         0.5551 
     20 N         -70.8861   29.6880  -72.2847 N.am      10 UNK        -0.7319 
     21 O         -71.4880   31.7376  -71.7132 O.2       10 UNK        -0.5018 
     22 N         -71.0953   30.3039  -75.0792 N.am      10 UNK        -0.4509 
     23 C         -69.8239   30.0530  -75.4153 C.2       10 UNK         0.4899 
     24 O         -68.8697   30.7096  -74.9936 O.2       10 UNK        -0.4839 
     25 CA        -69.5726   28.8789  -76.3861 C.3       9 UNK         0.0222 
     26 CB        -68.1131   28.3799  -76.3339 C.3       9 UNK        -0.1966 
     27 N         -70.4881   27.7390  -76.2350 N.am      9 UNK        -0.4218 
     28 C         -70.7749   27.0481  -75.1226 C.2       9 UNK         0.5020 
     29 O         -70.3798   27.3712  -74.0005 O.2       9 UNK        -0.5274 
     30 CA        -71.6276   25.7717  -75.2982 C.3       8 UNK         0.0270 
     31 CB        -72.0615   25.1662  -73.9497 C.3       8 UNK        -0.1976 
     32 N         -72.8100   25.9443  -76.1533 N.am      8 UNK        -0.4313 
     33 C         -72.8042   26.0510  -77.4903 C.2       8 UNK         0.5041 
     34 O         -71.7679   26.1072  -78.1545 O.2       8 UNK        -0.5577 
     35 CA        -74.1559   26.1076  -78.2255 C.3       7 UNK         0.0284 
     36 CB        -74.4781   24.7428  -78.8549 C.3       7 UNK        -0.1958 
     37 N         -75.2740   26.5182  -77.3762 N.am      7 UNK        -0.4454 
     38 C         -75.4765   27.7640  -76.9278 C.2       7 UNK         0.5089 
     39 O         -74.7635   28.7209  -77.2288 O.2       7 UNK        -0.5125 
     40 CA        -76.6696   27.9677  -75.9756 C.3       6 UNK         0.0408 
     41 CB        -77.9473   28.2885  -76.7665 C.3       6 UNK        -0.1791 
     42 N         -76.9087   26.8082  -75.1109 N.am      6 UNK        -0.4762 
     43 C         -76.0786   26.4083  -74.1348 C.2       6 UNK         0.5007 
     44 O         -75.0237   26.9767  -73.8601 O.2       6 UNK        -0.5032 
     45 CA        -76.4547   25.1084  -73.3943 C.3       5 UNK         0.0783 
     46 C46       -77.4558   25.3517  -72.2371 C.3       11 UNK        -0.0857 
     47 S47       -76.6155   25.9766  -70.7429 S.3       11 UNK        -0.2512 
     48 C48       -77.6187   27.4288  -70.2929 C.3       11 UNK         0.0225 
     49 N         -76.9301   24.0779  -74.3227 N.am      5 UNK        -0.4615 
     50 C         -76.1464   23.4590  -75.2168 C.2       4 UNK         0.5053 
     51 O         -74.9408   23.6713  -75.3326 O.2       4 UNK        -0.5105 
     52 CA        -76.8232   22.4543  -76.1614 C.3       4 UNK         0.0263 
     53 CB        -76.8952   21.0649  -75.5089 C.3       4 UNK        -0.1981 
     54 N         -78.1630   22.8581  -76.5938 N.am      4 UNK        -0.4224 
     55 C         -78.4667   23.9659  -77.2803 C.2       3 UNK         0.4895 
     56 O         -77.6431   24.8319  -77.5724 O.2       3 UNK        -0.5091 
     57 CA        -79.9339   24.1512  -77.7071 C.3       3 UNK         0.0250 
     58 CB        -80.2885   23.2192  -78.8818 C.3       3 UNK        -0.1996 
     59 N         -80.9164   24.0391  -76.6186 N.am      3 UNK        -0.4254 
     60 C         -81.2165   22.9911  -75.8376 C.2       2 UNK         0.5004 
     61 O         -80.6646   21.8926  -75.9283 O.2       2 UNK        -0.5226 
     62 CA        -82.2990   23.2172  -74.7603 C.3       2 UNK         0.0269 
     63 CB        -82.3331   22.0853  -73.7155 C.3       2 UNK        -0.1926 
     64 N         -82.1631   24.4980  -74.0548 N.am      2 UNK        -0.4687 
     65 C         -82.5473   25.6967  -74.5181 C.2       1 UNK         0.5165 
     66 O         -82.9921   25.8573  -75.6553 O.2       1 UNK        -0.5079 
     67 H67       -82.4543   24.7245  -69.6687 H         1 UNK         0.0900 
     68 H68       -81.2003   25.9487  -69.8755 H         1 UNK         0.0900 
     69 H69       -82.7479   26.3864  -69.1501 H         1 UNK         0.0900 
     70 H70       -81.0388   26.6666  -71.9865 H         1 UNK         0.2959 
     71 H71       -83.3926   27.3739  -73.5489 H         1 UNK         0.1079 
     72 H72       -81.6752   28.1687  -75.2396 H         1 UNK         0.0837 
     73 H73       -80.4049   27.6043  -74.1809 H         1 UNK         0.0837 
     74 H74       -79.7878   30.2033  -74.8411 H         1 UNK         0.0685 
     75 H75       -80.0851   31.4277  -73.6368 H         1 UNK         0.0685 
     76 H76       -79.6443   28.3397  -71.8385 H         1 UNK         0.1434 
     77 H77       -75.4948   28.9776  -71.0326 H         1 UNK         0.1329 
     78 H78       -77.4997   31.4109  -73.9339 H         1 UNK         0.1335 
     79 H79       -74.4078   30.9634  -71.8944 H         1 UNK         0.0680 
     80 H80       -75.3373   32.1367  -72.7984 H         1 UNK         0.0680 
     81 H81       -72.9738   32.2628  -75.3784 H         1 UNK         0.1032 
     82 H82       -73.1711   32.6741  -73.7079 H         1 UNK         0.1032 
     83 H83       -70.8490   32.1743  -74.2356 H         1 UNK         0.0461 
     84 H84       -70.7488   29.4524  -71.3155 H         1 UNK         0.3453 
     85 H85       -70.7200   28.9857  -73.0001 H         1 UNK         0.3453 
     86 H86       -71.8288   29.7089  -75.4374 H         1 UNK         0.2984 
     87 H87       -69.7497   29.2757  -77.3867 H         1 UNK         0.0554 
     88 H88       -67.4120   29.1805  -76.5732 H         1 UNK         0.0847 
     89 H89       -67.9407   27.5788  -77.0526 H         1 UNK         0.0847 
     90 H90       -67.8536   28.0035  -75.3436 H         1 UNK         0.0847 
     91 H91       -70.8733   27.3596  -77.0987 H         1 UNK         0.3141 
     92 H92       -70.9782   25.0393  -75.7823 H         1 UNK         0.0743 
     93 H93       -72.6837   25.8566  -73.3799 H         1 UNK         0.0784 
     94 H94       -72.6218   24.2418  -74.0881 H         1 UNK         0.0784 
     95 H95       -71.1957   24.9249  -73.3317 H         1 UNK         0.0784 
     96 H96       -73.7058   25.9301  -75.6825 H         1 UNK         0.3213 
     97 H97       -74.0574   26.8383  -79.0313 H         1 UNK         0.0855 
     98 H98       -74.5761   23.9645  -78.0978 H         1 UNK         0.0814 
     99 H99       -73.6885   24.4327  -79.5406 H         1 UNK         0.0814 
    100 H100      -75.4074   24.7761  -79.4240 H         1 UNK         0.0814 
    101 H101      -75.9709   25.8114  -77.1598 H         1 UNK         0.3105 
    102 H102      -76.4449   28.8211  -75.3339 H         1 UNK         0.0547 
    103 H103      -77.8196   29.1985  -77.3540 H         1 UNK         0.0837 
    104 H104      -78.2084   27.4883  -77.4598 H         1 UNK         0.0837 
    105 H105      -78.7965   28.4471  -76.1035 H         1 UNK         0.0837 
    106 H106      -77.7173   26.2431  -75.3221 H         1 UNK         0.3020 
    107 H107      -75.5288   24.7213  -72.9601 H         1 UNK         0.1245 
    108 H108      -77.9332   24.4132  -71.9508 H         1 UNK         0.0781 
    109 H109      -78.2660   26.0164  -72.5406 H         1 UNK         0.0781 
    110 H110      -77.2486   27.8280  -69.3474 H         1 UNK         0.0836 
    111 H111      -78.6435   27.1068  -70.1027 H         1 UNK         0.0836 
    112 H112      -77.9094   23.8381  -74.2894 H         1 UNK         0.3022 
    113 H113      -76.2025   22.3783  -77.0563 H         1 UNK         0.0747 
    114 H114      -77.2784   20.3196  -76.2062 H         1 UNK         0.0793 
    115 H115      -75.9068   20.7308  -75.1899 H         1 UNK         0.0793 
    116 H116      -77.5411   21.0639  -74.6299 H         1 UNK         0.0793 
    117 H117      -78.9375   22.2370  -76.3639 H         1 UNK         0.3047 
    118 H118      -80.0194   25.1763  -78.0718 H         1 UNK         0.0822 
    119 H119      -81.2920   23.4207  -79.2566 H         1 UNK         0.0807 
    120 H120      -80.2426   22.1667  -78.6002 H         1 UNK         0.0807 
    121 H121      -79.5978   23.3619  -79.7140 H         1 UNK         0.0807 
    122 H122      -81.4652   24.8767  -76.4498 H         1 UNK         0.2946 
    123 H123      -83.2582   23.2118  -75.2836 H         1 UNK         0.1144 
    124 H124      -83.1308   22.2397  -72.9885 H         1 UNK         0.0793 
    125 H125      -81.3911   22.0106  -73.1709 H         1 UNK         0.0793 
    126 H126      -82.5149   21.1188  -74.1879 H         1 UNK         0.0793 
    127 H127      -81.7886   24.4580  -73.1182 H         1 UNK         0.2896 
@<TRIPOS>BOND
     1    1    2 1    
     2    1   67 1    
     3    1   68 1    
     4    1   69 1    
     5    2    3 2    
     6    2    4 am   BACKBONE|DICT|INTERRES
     7    4    5 1    
     8    4   70 1    
     9    5    6 1    
    10    5   65 1    
    11    5   71 1    
    12    6    7 1    
    13    6   72 1    
    14    6   73 1    
    15    7    8 1    
    16    8    9 1    
    17    8   74 1    
    18    8   75 1    
    19    9   10 ar   
    20    9   14 ar   
    21   10   11 ar   
    22   10   76 1    
    23   11   12 ar   
    24   11   48 1    
    25   12   13 ar   
    26   12   77 1    
    27   13   14 ar   
    28   13   15 1    
    29   14   78 1    
    30   15   16 1    
    31   15   79 1    
    32   15   80 1    
    33   16   17 1    
    34   17   18 1    
    35   17   81 1    
    36   17   82 1    
    37   18   19 1    
    38   18   22 1    
    39   18   83 1    
    40   19   20 am   BACKBONE|DICT|INTERRES
    41   19   21 2    
    42   20   84 1    
    43   20   85 1    
    44   22   23 am   BACKBONE|DICT|INTERRES
    45   22   86 1    
    46   23   24 2    
    47   23   25 1    
    48   25   26 1    
    49   25   27 1    
    50   25   87 1    
    51   26   88 1    
    52   26   89 1    
    53   26   90 1    
    54   27   28 am   BACKBONE|DICT|INTERRES
    55   27   91 1    
    56   28   29 2    
    57   28   30 1    
    58   30   31 1    
    59   30   32 1    
    60   30   92 1    
    61   31   93 1    
    62   31   94 1    
    63   31   95 1    
    64   32   33 am   BACKBONE|DICT|INTERRES
    65   32   96 1    
    66   33   34 2    
    67   33   35 1    
    68   35   36 1    
    69   35   37 1    
    70   35   97 1    
    71   36   98 1    
    72   36   99 1    
    73   36  100 1    
    74   37   38 am   BACKBONE|DICT|INTERRES
    75   37  101 1    
    76   38   39 2    
    77   38   40 1    
    78   40   41 1    
    79   40   42 1    
    80   40  102 1    
    81   41  103 1    
    82   41  104 1    
    83   41  105 1    
    84   42   43 am   BACKBONE|DICT|INTERRES
    85   42  106 1    
    86   43   44 2    
    87   43   45 1    
    88   45   46 1    
    89   45   49 1    
    90   45  107 1    
    91   46   47 1    
    92   46  108 1    
    93   46  109 1    
    94   47   48 1    
    95   48  110 1    
    96   48  111 1    
    97   49   50 am   BACKBONE|DICT|INTERRES
    98   49  112 1    
    99   50   51 2    
   100   50   52 1    
   101   52   53 1    
   102   52   54 1    
   103   52  113 1    
   104   53  114 1    
   105   53  115 1    
   106   53  116 1    
   107   54   55 am   BACKBONE|DICT|INTERRES
   108   54  117 1    
   109   55   56 2    
   110   55   57 1    
   111   57   58 1    
   112   57   59 1    
   113   57  118 1    
   114   58  119 1    
   115   58  120 1    
   116   58  121 1    
   117   59   60 am   BACKBONE|DICT|INTERRES
   118   59  122 1    
   119   60   61 2    
   120   60   62 1    
   121   62   63 1    
   122   62   64 1    
   123   62  123 1    
   124   63  124 1    
   125   63  125 1    
   126   63  126 1    
   127   64   65 am   BACKBONE|DICT|INTERRES
   128   64  127 1    
   129   65   66 2    
@<TRIPOS>SUBSTRUCTURE
     1 UNK         1 GROUP             0       ****    0 ROOT    
