@<TRIPOS>MOLECULE
3R135
127   129    1
SMALL
USER_CHARGES


@<TRIPOS>ATOM
      1 CA        -83.6057   23.9942  -71.6715 C.3       0 UNK        -0.1998 
      2 C         -82.5921   24.3220  -72.7577 C.2       0 UNK         0.4909 
      3 O         -82.9359   24.3121  -73.9410 O.2       0 UNK        -0.5240 
      4 N         -81.3468   24.6200  -72.3662 N.am      1 UNK        -0.4739 
      5 CA        -80.2323   24.8899  -73.2788 C.3       1 UNK         0.0864 
      6 C6        -79.1098   25.7126  -72.6043 C.3       11 UNK        -0.0881 
      7 S7        -78.4288   24.9846  -71.0724 S.3       11 UNK        -0.2682 
      8 C8        -78.4926   26.3980  -69.9227 C.3       11 UNK         0.0289 
      9 C9        -77.7845   27.6271  -70.4792 C.ar      11 UNK        -0.0687 
     10 C10       -78.5251   28.7511  -70.8578 C.ar      11 UNK        -0.0823 
     11 C11       -77.8900   29.8715  -71.3985 C.ar      11 UNK        -0.0830 
     12 C12       -76.4984   29.8738  -71.5357 C.ar      11 UNK        -0.1021 
     13 C13       -75.7467   28.7555  -71.1632 C.ar      11 UNK        -0.0753 
     14 C14       -76.3950   27.6357  -70.6327 C.ar      11 UNK        -0.0933 
     15 C15       -74.2359   28.7548  -71.3346 C.3       11 UNK         0.0166 
     16 S16       -73.7708   28.5796  -73.0846 S.3       11 UNK        -0.2615 
     17 C17       -73.1665   30.2624  -73.4692 C.3       11 UNK        -0.0865 
     18 CA        -72.5236   30.3810  -74.8787 C.3       10 UNK         0.0862 
     19 C         -72.0162   31.8265  -75.1516 C.2       10 UNK         0.5551 
     20 N         -70.7446   32.0367  -75.4695 N.am      10 UNK        -0.7319 
     21 O         -72.7921   32.7758  -75.0757 O.2       10 UNK        -0.5018 
     22 N         -71.5264   29.3246  -75.1030 N.am      10 UNK        -0.4509 
     23 C         -71.1777   28.8048  -76.2833 C.2       10 UNK         0.4899 
     24 O         -71.5744   29.2342  -77.3661 O.2       10 UNK        -0.4839 
     25 CA        -70.2718   27.5583  -76.2567 C.3       9 UNK         0.0222 
     26 CB        -68.7807   27.9467  -76.2927 C.3       9 UNK        -0.1966 
     27 N         -70.5767   26.6211  -75.1607 N.am      9 UNK        -0.4218 
     28 C         -70.3949   26.7798  -73.8397 C.2       9 UNK         0.5020 
     29 O         -69.8700   27.7734  -73.3345 O.2       9 UNK        -0.5274 
     30 CA        -70.9915   25.6869  -72.9420 C.3       8 UNK         0.0270 
     31 CB        -70.8962   26.0187  -71.4403 C.3       8 UNK        -0.1976 
     32 N         -72.3953   25.5107  -73.3082 N.am      8 UNK        -0.4313 
     33 C         -72.9811   24.3475  -73.6074 C.2       8 UNK         0.5041 
     34 O         -72.4193   23.2544  -73.5274 O.2       8 UNK        -0.5577 
     35 CA        -74.4364   24.4096  -74.1038 C.3       7 UNK         0.0284 
     36 CB        -75.4147   24.1781  -72.9426 C.3       7 UNK        -0.1958 
     37 N         -74.7930   25.6554  -74.7936 N.am      7 UNK        -0.4454 
     38 C         -74.2796   26.0639  -75.9641 C.2       7 UNK         0.5089 
     39 O         -73.3825   25.4620  -76.5554 O.2       7 UNK        -0.5125 
     40 CA        -74.8577   27.3508  -76.5803 C.3       6 UNK         0.0408 
     41 CB        -75.0619   27.2214  -78.1011 C.3       6 UNK        -0.1791 
     42 N         -76.1199   27.7492  -75.9518 N.am      6 UNK        -0.4762 
     43 C         -76.5158   29.0096  -75.7365 C.2       6 UNK         0.5007 
     44 O         -75.8623   29.9969  -76.0754 O.2       6 UNK        -0.5032 
     45 CA        -77.8996   29.1917  -75.0728 C.3       5 UNK         0.0783 
     46 C46       -78.1103   30.6434  -74.5677 C.3       11 UNK        -0.0857 
     47 S47       -79.5382   30.7755  -73.4413 S.3       11 UNK        -0.2512 
     48 C48       -78.7143   31.0722  -71.8413 C.3       11 UNK         0.0225 
     49 N         -78.9657   28.7909  -76.0001 N.am      5 UNK        -0.4615 
     50 C         -79.2642   27.5365  -76.3530 C.2       4 UNK         0.5053 
     51 O         -78.7255   26.5393  -75.8555 O.2       4 UNK        -0.5105 
     52 CA        -80.3051   27.3681  -77.4702 C.3       4 UNK         0.0263 
     53 CB        -79.7700   27.9158  -78.8089 C.3       4 UNK        -0.1981 
     54 N         -80.5908   25.9446  -77.5887 N.am      4 UNK        -0.4224 
     55 C         -81.5835   25.3405  -78.2490 C.2       3 UNK         0.4895 
     56 O         -82.4419   25.9469  -78.8910 O.2       3 UNK        -0.5091 
     57 CA        -81.6607   23.7994  -78.1522 C.3       3 UNK         0.0250 
     58 CB        -81.5961   23.1334  -79.5424 C.3       3 UNK        -0.1996 
     59 N         -80.6930   23.2061  -77.2112 N.am      3 UNK        -0.4254 
     60 C         -79.3572   23.1140  -77.3278 C.2       2 UNK         0.5004 
     61 O         -78.7274   23.4065  -78.3441 O.2       2 UNK        -0.5226 
     62 CA        -78.6095   22.7698  -76.0302 C.3       2 UNK         0.0269 
     63 CB        -77.0806   22.7338  -76.2062 C.3       2 UNK        -0.1926 
     64 N         -78.9568   23.7988  -75.0485 N.am      2 UNK        -0.4687 
     65 C         -79.7161   23.6062  -73.9652 C.2       1 UNK         0.5165 
     66 O         -80.0383   22.4908  -73.5470 O.2       1 UNK        -0.5079 
     67 H67       -83.1692   24.0567  -70.6748 H         1 UNK         0.0900 
     68 H68       -83.9903   22.9843  -71.8108 H         1 UNK         0.0900 
     69 H69       -84.4442   24.6885  -71.7188 H         1 UNK         0.0900 
     70 H70       -81.1003   24.5749  -71.3877 H         1 UNK         0.2959 
     71 H71       -80.6311   25.5130  -74.0833 H         1 UNK         0.1079 
     72 H72       -78.2819   25.8931  -73.2911 H         1 UNK         0.0837 
     73 H73       -79.5151   26.7000  -72.3859 H         1 UNK         0.0837 
     74 H74       -79.5359   26.6212  -69.6940 H         1 UNK         0.0685 
     75 H75       -78.0268   26.1092  -68.9796 H         1 UNK         0.0685 
     76 H76       -79.6016   28.7488  -70.7526 H         1 UNK         0.1434 
     77 H77       -75.9980   30.7391  -71.9473 H         1 UNK         0.1329 
     78 H78       -75.8227   26.7638  -70.3469 H         1 UNK         0.1335 
     79 H79       -73.7899   27.9316  -70.7745 H         1 UNK         0.0680 
     80 H80       -73.8170   29.6692  -70.9127 H         1 UNK         0.0680 
     81 H81       -72.4432   30.5531  -72.7049 H         1 UNK         0.1032 
     82 H82       -74.0055   30.9547  -73.3802 H         1 UNK         0.1032 
     83 H83       -73.3189   30.2214  -75.6062 H         1 UNK         0.0461 
     84 H84       -70.4252   32.9760  -75.6469 H         1 UNK         0.3453 
     85 H85       -70.1055   31.2612  -75.5375 H         1 UNK         0.3453 
     86 H86       -71.0964   28.9282  -74.2730 H         1 UNK         0.2984 
     87 H87       -70.4848   27.0044  -77.1725 H         1 UNK         0.0554 
     88 H88       -68.1416   27.0644  -76.3228 H         1 UNK         0.0847 
     89 H89       -68.4888   28.5431  -75.4280 H         1 UNK         0.0847 
     90 H90       -68.5571   28.5388  -77.1810 H         1 UNK         0.0847 
     91 H91       -71.0823   25.7938  -75.4523 H         1 UNK         0.3141 
     92 H92       -70.4225   24.7745  -73.1323 H         1 UNK         0.0743 
     93 H93       -71.3235   25.2216  -70.8319 H         1 UNK         0.0784 
     94 H94       -69.8571   26.1410  -71.1321 H         1 UNK         0.0784 
     95 H95       -71.4214   26.9434  -71.1976 H         1 UNK         0.0784 
     96 H96       -72.9357   26.3616  -73.4115 H         1 UNK         0.3213 
     97 H97       -74.5551   23.5940  -74.8194 H         1 UNK         0.0855 
     98 H98       -75.3835   24.9926  -72.2180 H         1 UNK         0.0814 
     99 H99       -75.1787   23.2570  -72.4080 H         1 UNK         0.0814 
    100 H100      -76.4395   24.0847  -73.3012 H         1 UNK         0.0814 
    101 H101      -75.4724   26.2481  -74.3405 H         1 UNK         0.3105 
    102 H102      -74.1104   28.1241  -76.4006 H         1 UNK         0.0547 
    103 H103      -74.1264   26.9758  -78.6052 H         1 UNK         0.0837 
    104 H104      -75.7824   26.4393  -78.3434 H         1 UNK         0.0837 
    105 H105      -75.4216   28.1552  -78.5332 H         1 UNK         0.0837 
    106 H106      -76.7892   27.0093  -75.7615 H         1 UNK         0.3020 
    107 H107      -77.9202   28.5289  -74.2039 H         1 UNK         0.1245 
    108 H108      -78.2648   31.3247  -75.4063 H         1 UNK         0.0781 
    109 H109      -77.2224   31.0124  -74.0520 H         1 UNK         0.0781 
    110 H110      -79.4732   31.2894  -71.0882 H         1 UNK         0.0836 
    111 H111      -78.0929   31.9665  -71.9108 H         1 UNK         0.0836 
    112 H112      -79.4499   29.5494  -76.4576 H         1 UNK         0.3022 
    113 H113      -81.2182   27.8931  -77.1834 H         1 UNK         0.0747 
    114 H114      -80.4957   27.7892  -79.6122 H         1 UNK         0.0793 
    115 H115      -79.5513   28.9822  -78.7455 H         1 UNK         0.0793 
    116 H116      -78.8507   27.4105  -79.1089 H         1 UNK         0.0793 
    117 H117      -79.9284   25.3676  -77.0888 H         1 UNK         0.3047 
    118 H118      -82.6442   23.5804  -77.7330 H         1 UNK         0.0822 
    119 H119      -82.4251   23.4642  -80.1693 H         1 UNK         0.0807 
    120 H120      -81.6608   22.0480  -79.4674 H         1 UNK         0.0807 
    121 H121      -80.6766   23.3810  -80.0731 H         1 UNK         0.0807 
    122 H122      -81.0891   22.9534  -76.3152 H         1 UNK         0.2946 
    123 H123      -78.9433   21.7799  -75.7099 H         1 UNK         0.1144 
    124 H124      -76.6807   23.7074  -76.4928 H         1 UNK         0.0793 
    125 H125      -76.7910   22.0189  -76.9774 H         1 UNK         0.0793 
    126 H126      -76.5922   22.4254  -75.2826 H         1 UNK         0.0793 
    127 H127      -78.7375   24.7562  -75.3154 H         1 UNK         0.2896 
@<TRIPOS>BOND
     1    1    2 1    
     2    1   67 1    
     3    1   68 1    
     4    1   69 1    
     5    2    3 2    
     6    2    4 am   BACKBONE|DICT|INTERRES
     7    4    5 1    
     8    4   70 1    
     9    5    6 1    
    10    5   65 1    
    11    5   71 1    
    12    6    7 1    
    13    6   72 1    
    14    6   73 1    
    15    7    8 1    
    16    8    9 1    
    17    8   74 1    
    18    8   75 1    
    19    9   10 ar   
    20    9   14 ar   
    21   10   11 ar   
    22   10   76 1    
    23   11   12 ar   
    24   11   48 1    
    25   12   13 ar   
    26   12   77 1    
    27   13   14 ar   
    28   13   15 1    
    29   14   78 1    
    30   15   16 1    
    31   15   79 1    
    32   15   80 1    
    33   16   17 1    
    34   17   18 1    
    35   17   81 1    
    36   17   82 1    
    37   18   19 1    
    38   18   22 1    
    39   18   83 1    
    40   19   20 am   BACKBONE|DICT|INTERRES
    41   19   21 2    
    42   20   84 1    
    43   20   85 1    
    44   22   23 am   BACKBONE|DICT|INTERRES
    45   22   86 1    
    46   23   24 2    
    47   23   25 1    
    48   25   26 1    
    49   25   27 1    
    50   25   87 1    
    51   26   88 1    
    52   26   89 1    
    53   26   90 1    
    54   27   28 am   BACKBONE|DICT|INTERRES
    55   27   91 1    
    56   28   29 2    
    57   28   30 1    
    58   30   31 1    
    59   30   32 1    
    60   30   92 1    
    61   31   93 1    
    62   31   94 1    
    63   31   95 1    
    64   32   33 am   BACKBONE|DICT|INTERRES
    65   32   96 1    
    66   33   34 2    
    67   33   35 1    
    68   35   36 1    
    69   35   37 1    
    70   35   97 1    
    71   36   98 1    
    72   36   99 1    
    73   36  100 1    
    74   37   38 am   BACKBONE|DICT|INTERRES
    75   37  101 1    
    76   38   39 2    
    77   38   40 1    
    78   40   41 1    
    79   40   42 1    
    80   40  102 1    
    81   41  103 1    
    82   41  104 1    
    83   41  105 1    
    84   42   43 am   BACKBONE|DICT|INTERRES
    85   42  106 1    
    86   43   44 2    
    87   43   45 1    
    88   45   46 1    
    89   45   49 1    
    90   45  107 1    
    91   46   47 1    
    92   46  108 1    
    93   46  109 1    
    94   47   48 1    
    95   48  110 1    
    96   48  111 1    
    97   49   50 am   BACKBONE|DICT|INTERRES
    98   49  112 1    
    99   50   51 2    
   100   50   52 1    
   101   52   53 1    
   102   52   54 1    
   103   52  113 1    
   104   53  114 1    
   105   53  115 1    
   106   53  116 1    
   107   54   55 am   BACKBONE|DICT|INTERRES
   108   54  117 1    
   109   55   56 2    
   110   55   57 1    
   111   57   58 1    
   112   57   59 1    
   113   57  118 1    
   114   58  119 1    
   115   58  120 1    
   116   58  121 1    
   117   59   60 am   BACKBONE|DICT|INTERRES
   118   59  122 1    
   119   60   61 2    
   120   60   62 1    
   121   62   63 1    
   122   62   64 1    
   123   62  123 1    
   124   63  124 1    
   125   63  125 1    
   126   63  126 1    
   127   64   65 am   BACKBONE|DICT|INTERRES
   128   64  127 1    
   129   65   66 2    
@<TRIPOS>SUBSTRUCTURE
     1 UNK         1 GROUP             0       ****    0 ROOT    
