@<TRIPOS>MOLECULE
3R135
127   129    1
SMALL
USER_CHARGES


@<TRIPOS>ATOM
      1 CA        -83.1205   28.4451  -78.5506 C.3       0 UNK        -0.1998 
      2 C         -82.3687   27.9509  -77.3242 C.2       0 UNK         0.4909 
      3 O         -81.4825   27.1031  -77.4472 O.2       0 UNK        -0.5240 
      4 N         -82.7073   28.4752  -76.1374 N.am      1 UNK        -0.4739 
      5 CA        -82.1162   28.0581  -74.8634 C.3       1 UNK         0.0864 
      6 C6        -82.3922   29.0775  -73.7304 C.3       11 UNK        -0.0881 
      7 S7        -81.2805   28.8473  -72.3001 S.3       11 UNK        -0.2682 
      8 C8        -79.7350   29.6179  -72.9027 C.3       11 UNK         0.0289 
      9 C9        -78.4446   29.0483  -72.3068 C.ar      11 UNK        -0.0687 
     10 C10       -78.3890   27.8144  -71.6417 C.ar      11 UNK        -0.0823 
     11 C11       -77.1836   27.3348  -71.1204 C.ar      11 UNK        -0.0830 
     12 C12       -76.0153   28.0810  -71.2909 C.ar      11 UNK        -0.1021 
     13 C13       -76.0486   29.3092  -71.9573 C.ar      11 UNK        -0.0753 
     14 C14       -77.2662   29.7871  -72.4532 C.ar      11 UNK        -0.0933 
     15 C15       -74.7803   30.1428  -72.0838 C.3       11 UNK         0.0166 
     16 S16       -74.4151   30.6252  -73.8018 S.3       11 UNK        -0.2615 
     17 C17       -72.8710   31.5729  -73.5466 C.3       11 UNK        -0.0865 
     18 CA        -71.6570   31.0086  -74.3407 C.3       10 UNK         0.0862 
     19 C         -70.3703   31.8707  -74.1660 C.2       10 UNK         0.5551 
     20 N         -69.1778   31.2877  -74.1848 N.am      10 UNK        -0.7319 
     21 O         -70.4487   33.0907  -74.0414 O.2       10 UNK        -0.5018 
     22 N         -71.4625   29.5596  -74.1587 N.am      10 UNK        -0.4509 
     23 C         -71.1927   28.9203  -73.0115 C.2       10 UNK         0.4899 
     24 O         -70.9933   29.4969  -71.9419 O.2       10 UNK        -0.4839 
     25 CA        -71.1619   27.3785  -73.0472 C.3       9 UNK         0.0222 
     26 CB        -71.9776   26.7820  -71.8860 C.3       9 UNK        -0.1966 
     27 N         -71.6856   26.8463  -74.3084 N.am      9 UNK        -0.4218 
     28 C         -70.9437   26.4964  -75.3674 C.2       9 UNK         0.5020 
     29 O         -69.7122   26.4961  -75.3752 O.2       9 UNK        -0.5274 
     30 CA        -71.7060   26.1263  -76.6524 C.3       8 UNK         0.0270 
     31 CB        -72.1979   24.6718  -76.5920 C.3       8 UNK        -0.1976 
     32 N         -72.8391   27.0140  -76.9335 N.am      8 UNK        -0.4313 
     33 C         -72.7692   28.3361  -77.1371 C.2       8 UNK         0.5041 
     34 O         -71.7114   28.9649  -77.1239 O.2       8 UNK        -0.5577 
     35 CA        -74.0856   29.1095  -77.3475 C.3       7 UNK         0.0284 
     36 CB        -74.4698   29.1665  -78.8389 C.3       7 UNK        -0.1958 
     37 N         -75.2004   28.6468  -76.5072 N.am      7 UNK        -0.4454 
     38 C         -75.8551   27.4804  -76.5601 C.2       7 UNK         0.5089 
     39 O         -75.6452   26.6059  -77.4026 O.2       7 UNK        -0.5125 
     40 CA        -76.8670   27.2181  -75.4348 C.3       6 UNK         0.0408 
     41 CB        -78.3016   27.1938  -75.9789 C.3       6 UNK        -0.1791 
     42 N         -76.5935   25.9548  -74.7496 N.am      6 UNK        -0.4762 
     43 C         -75.4484   25.6408  -74.1258 C.2       6 UNK         0.5007 
     44 O         -74.4718   26.3893  -74.0663 O.2       6 UNK        -0.5032 
     45 CA        -75.3661   24.2536  -73.4628 C.3       5 UNK         0.0783 
     46 C46       -75.5348   24.3443  -71.9248 C.3       11 UNK        -0.0857 
     47 S47       -77.2647   24.5634  -71.3764 S.3       11 UNK        -0.2512 
     48 C48       -77.1626   26.0401  -70.3200 C.3       11 UNK         0.0225 
     49 N         -76.2983   23.2908  -74.0619 N.am      5 UNK        -0.4615 
     50 C         -76.0411   22.5576  -75.1510 C.2       4 UNK         0.5053 
     51 O         -74.9809   22.6006  -75.7741 O.2       4 UNK        -0.5105 
     52 CA        -77.1572   21.6070  -75.6105 C.3       4 UNK         0.0263 
     53 CB        -77.4049   20.4953  -74.5763 C.3       4 UNK        -0.1981 
     54 N         -78.4129   22.3066  -75.8895 N.am      4 UNK        -0.4224 
     55 C         -78.6313   23.1075  -76.9397 C.2       3 UNK         0.4895 
     56 O         -77.7750   23.3733  -77.7823 O.2       3 UNK        -0.5091 
     57 CA        -80.0428   23.7024  -77.1067 C.3       3 UNK         0.0250 
     58 CB        -80.9787   22.7057  -77.8178 C.3       3 UNK        -0.1996 
     59 N         -80.6613   24.2338  -75.8830 N.am      3 UNK        -0.4254 
     60 C         -81.0537   23.5888  -74.7717 C.2       2 UNK         0.5004 
     61 O         -80.8973   22.3797  -74.5967 O.2       2 UNK        -0.5226 
     62 CA        -81.6978   24.4307  -73.6507 C.3       2 UNK         0.0269 
     63 CB        -81.0478   24.1340  -72.2890 C.3       2 UNK        -0.1926 
     64 N         -81.5931   25.8687  -73.9115 N.am      2 UNK        -0.4687 
     65 C         -82.5332   26.6152  -74.5032 C.2       1 UNK         0.5165 
     66 O         -83.6608   26.2045  -74.7884 O.2       1 UNK        -0.5079 
     67 H67       -83.6290   27.6135  -79.0374 H         1 UNK         0.0900 
     68 H68       -82.4245   28.8845  -79.2645 H         1 UNK         0.0900 
     69 H69       -83.8664   29.1975  -78.2958 H         1 UNK         0.0900 
     70 H70       -83.4637   29.1424  -76.0823 H         1 UNK         0.2959 
     71 H71       -81.0410   28.0478  -75.0387 H         1 UNK         0.1079 
     72 H72       -83.4277   29.0109  -73.3911 H         1 UNK         0.0837 
     73 H73       -82.2608   30.0973  -74.0966 H         1 UNK         0.0837 
     74 H74       -79.6681   29.5247  -73.9864 H         1 UNK         0.0685 
     75 H75       -79.7916   30.6870  -72.6924 H         1 UNK         0.0685 
     76 H76       -79.2802   27.2189  -71.5070 H         1 UNK         0.1434 
     77 H77       -75.0841   27.7164  -70.8810 H         1 UNK         0.1329 
     78 H78       -77.2931   30.7429  -72.9590 H         1 UNK         0.1335 
     79 H79       -74.8909   31.0413  -71.4753 H         1 UNK         0.0680 
     80 H80       -73.9233   29.5986  -71.6843 H         1 UNK         0.0680 
     81 H81       -72.6324   31.6188  -72.4828 H         1 UNK         0.1032 
     82 H82       -73.0695   32.6032  -73.8473 H         1 UNK         0.1032 
     83 H83       -71.9046   31.1190  -75.3966 H         1 UNK         0.0461 
     84 H84       -68.3482   31.8505  -74.0816 H         1 UNK         0.3453 
     85 H85       -69.1034   30.2895  -74.2991 H         1 UNK         0.3453 
     86 H86       -71.5512   29.0149  -75.0076 H         1 UNK         0.2984 
     87 H87       -70.1219   27.0730  -72.9185 H         1 UNK         0.0554 
     88 H88       -71.9720   25.6924  -71.9140 H         1 UNK         0.0847 
     89 H89       -73.0157   27.1122  -71.9167 H         1 UNK         0.0847 
     90 H90       -71.5683   27.0824  -70.9207 H         1 UNK         0.0847 
     91 H91       -72.7018   26.7926  -74.3785 H         1 UNK         0.3141 
     92 H92       -71.0077   26.2164  -77.4870 H         1 UNK         0.0743 
     93 H93       -72.9250   24.5243  -75.7929 H         1 UNK         0.0784 
     94 H94       -72.6682   24.3710  -77.5284 H         1 UNK         0.0784 
     95 H95       -71.3697   23.9854  -76.4104 H         1 UNK         0.0784 
     96 H96       -73.7616   26.5903  -76.9896 H         1 UNK         0.3213 
     97 H97       -73.8917   30.1341  -77.0253 H         1 UNK         0.0855 
     98 H98       -73.6741   29.6287  -79.4246 H         1 UNK         0.0814 
     99 H99       -75.3717   29.7583  -78.9940 H         1 UNK         0.0814 
    100 H100      -74.6418   28.1750  -79.2583 H         1 UNK         0.0814 
    101 H101      -75.4061   29.2537  -75.7232 H         1 UNK         0.3105 
    102 H102      -76.7917   28.0136  -74.6914 H         1 UNK         0.0547 
    103 H103      -78.5740   28.1576  -76.4106 H         1 UNK         0.0837 
    104 H104      -78.4251   26.4416  -76.7593 H         1 UNK         0.0837 
    105 H105      -79.0137   26.9759  -75.1858 H         1 UNK         0.0837 
    106 H106      -77.3146   25.2520  -74.7829 H         1 UNK         0.3020 
    107 H107      -74.3481   23.9022  -73.6480 H         1 UNK         0.1245 
    108 H108      -74.9034   25.1334  -71.5116 H         1 UNK         0.0781 
    109 H109      -75.1712   23.4202  -71.4731 H         1 UNK         0.0781 
    110 H110      -76.2750   25.9826  -69.6881 H         1 UNK         0.0836 
    111 H111      -78.0134   26.0337  -69.6369 H         1 UNK         0.0836 
    112 H112      -77.1819   23.1790  -73.5858 H         1 UNK         0.3022 
    113 H113      -76.8237   21.1324  -76.5361 H         1 UNK         0.0747 
    114 H114      -78.1086   19.7544  -74.9564 H         1 UNK         0.0793 
    115 H115      -76.4793   19.9688  -74.3391 H         1 UNK         0.0793 
    116 H116      -77.8081   20.8866  -73.6414 H         1 UNK         0.0793 
    117 H117      -79.2009   22.1355  -75.2677 H         1 UNK         0.3047 
    118 H118      -79.9340   24.5651  -77.7667 H         1 UNK         0.0822 
    119 H119      -81.9492   23.1557  -78.0274 H         1 UNK         0.0807 
    120 H120      -81.1468   21.8064  -77.2245 H         1 UNK         0.0807 
    121 H121      -80.5562   22.3889  -78.7723 H         1 UNK         0.0807 
    122 H122      -80.8517   25.2262  -75.9195 H         1 UNK         0.2946 
    123 H123      -82.7485   24.1362  -73.5970 H         1 UNK         0.1144 
    124 H124      -81.5153   24.7118  -71.4916 H         1 UNK         0.0793 
    125 H125      -79.9852   24.3710  -72.2951 H         1 UNK         0.0793 
    126 H126      -81.1467   23.0806  -72.0235 H         1 UNK         0.0793 
    127 H127      -80.7160   26.3017  -73.6606 H         1 UNK         0.2896 
@<TRIPOS>BOND
     1    1    2 1    
     2    1   67 1    
     3    1   68 1    
     4    1   69 1    
     5    2    3 2    
     6    2    4 am   BACKBONE|DICT|INTERRES
     7    4    5 1    
     8    4   70 1    
     9    5    6 1    
    10    5   65 1    
    11    5   71 1    
    12    6    7 1    
    13    6   72 1    
    14    6   73 1    
    15    7    8 1    
    16    8    9 1    
    17    8   74 1    
    18    8   75 1    
    19    9   10 ar   
    20    9   14 ar   
    21   10   11 ar   
    22   10   76 1    
    23   11   12 ar   
    24   11   48 1    
    25   12   13 ar   
    26   12   77 1    
    27   13   14 ar   
    28   13   15 1    
    29   14   78 1    
    30   15   16 1    
    31   15   79 1    
    32   15   80 1    
    33   16   17 1    
    34   17   18 1    
    35   17   81 1    
    36   17   82 1    
    37   18   19 1    
    38   18   22 1    
    39   18   83 1    
    40   19   20 am   BACKBONE|DICT|INTERRES
    41   19   21 2    
    42   20   84 1    
    43   20   85 1    
    44   22   23 am   BACKBONE|DICT|INTERRES
    45   22   86 1    
    46   23   24 2    
    47   23   25 1    
    48   25   26 1    
    49   25   27 1    
    50   25   87 1    
    51   26   88 1    
    52   26   89 1    
    53   26   90 1    
    54   27   28 am   BACKBONE|DICT|INTERRES
    55   27   91 1    
    56   28   29 2    
    57   28   30 1    
    58   30   31 1    
    59   30   32 1    
    60   30   92 1    
    61   31   93 1    
    62   31   94 1    
    63   31   95 1    
    64   32   33 am   BACKBONE|DICT|INTERRES
    65   32   96 1    
    66   33   34 2    
    67   33   35 1    
    68   35   36 1    
    69   35   37 1    
    70   35   97 1    
    71   36   98 1    
    72   36   99 1    
    73   36  100 1    
    74   37   38 am   BACKBONE|DICT|INTERRES
    75   37  101 1    
    76   38   39 2    
    77   38   40 1    
    78   40   41 1    
    79   40   42 1    
    80   40  102 1    
    81   41  103 1    
    82   41  104 1    
    83   41  105 1    
    84   42   43 am   BACKBONE|DICT|INTERRES
    85   42  106 1    
    86   43   44 2    
    87   43   45 1    
    88   45   46 1    
    89   45   49 1    
    90   45  107 1    
    91   46   47 1    
    92   46  108 1    
    93   46  109 1    
    94   47   48 1    
    95   48  110 1    
    96   48  111 1    
    97   49   50 am   BACKBONE|DICT|INTERRES
    98   49  112 1    
    99   50   51 2    
   100   50   52 1    
   101   52   53 1    
   102   52   54 1    
   103   52  113 1    
   104   53  114 1    
   105   53  115 1    
   106   53  116 1    
   107   54   55 am   BACKBONE|DICT|INTERRES
   108   54  117 1    
   109   55   56 2    
   110   55   57 1    
   111   57   58 1    
   112   57   59 1    
   113   57  118 1    
   114   58  119 1    
   115   58  120 1    
   116   58  121 1    
   117   59   60 am   BACKBONE|DICT|INTERRES
   118   59  122 1    
   119   60   61 2    
   120   60   62 1    
   121   62   63 1    
   122   62   64 1    
   123   62  123 1    
   124   63  124 1    
   125   63  125 1    
   126   63  126 1    
   127   64   65 am   BACKBONE|DICT|INTERRES
   128   64  127 1    
   129   65   66 2    
@<TRIPOS>SUBSTRUCTURE
     1 UNK         1 GROUP             0       ****    0 ROOT    
