@<TRIPOS>MOLECULE
3R135
127   129    1
SMALL
USER_CHARGES


@<TRIPOS>ATOM
      1 CA        -78.2867   24.2241  -67.7743 C.3       0 UNK        -0.1998 
      2 C         -79.0083   24.6637  -69.0389 C.2       0 UNK         0.4909 
      3 O         -80.2256   24.5014  -69.1407 O.2       0 UNK        -0.5240 
      4 N         -78.2699   25.2111  -70.0125 N.am      1 UNK        -0.4739 
      5 CA        -78.7812   25.7104  -71.2964 C.3       1 UNK         0.0864 
      6 C6        -77.8639   26.8086  -71.8938 C.3       11 UNK        -0.0881 
      7 S7        -77.5910   28.2068  -70.7500 S.3       11 UNK        -0.2682 
      8 C8        -79.0130   29.2927  -71.0892 C.3       11 UNK         0.0289 
      9 C9        -78.9600   29.9120  -72.4785 C.ar      11 UNK        -0.0687 
     10 C10       -79.7658   29.4048  -73.5014 C.ar      11 UNK        -0.0823 
     11 C11       -79.7332   29.9727  -74.7766 C.ar      11 UNK        -0.0830 
     12 C12       -78.8961   31.0643  -75.0229 C.ar      11 UNK        -0.1021 
     13 C13       -78.0915   31.5911  -74.0085 C.ar      11 UNK        -0.0753 
     14 C14       -78.1300   31.0090  -72.7350 C.ar      11 UNK        -0.0933 
     15 C15       -77.2322   32.8187  -74.3033 C.3       11 UNK         0.0166 
     16 S16       -75.5495   32.7531  -73.6063 S.3       11 UNK        -0.2615 
     17 C17       -74.8246   31.3239  -74.4800 C.3       11 UNK        -0.0865 
     18 CA        -73.7603   30.6024  -73.6138 C.3       10 UNK         0.0862 
     19 C         -74.4033   29.7554  -72.4844 C.2       10 UNK         0.5551 
     20 N         -74.8342   28.5337  -72.7709 N.am      10 UNK        -0.7319 
     21 O         -74.4907   30.2013  -71.3433 O.2       10 UNK        -0.5018 
     22 N         -72.8511   29.7989  -74.4412 N.am      10 UNK        -0.4509 
     23 C         -71.5548   29.6100  -74.1622 C.2       10 UNK         0.4899 
     24 O         -70.9557   30.1827  -73.2499 O.2       10 UNK        -0.4839 
     25 CA        -70.8097   28.6083  -75.0629 C.3       9 UNK         0.0222 
     26 CB        -69.3516   28.3546  -74.6225 C.3       9 UNK        -0.1966 
     27 N         -71.5438   27.3474  -75.2147 N.am      9 UNK        -0.4218 
     28 C         -71.8763   26.4689  -74.2522 C.2       9 UNK         0.5020 
     29 O         -71.5420   26.5892  -73.0730 O.2       9 UNK        -0.5274 
     30 CA        -72.7228   25.2450  -74.6617 C.3       8 UNK         0.0270 
     31 CB        -73.9479   25.0660  -73.7449 C.3       8 UNK        -0.1976 
     32 N         -73.1751   25.3236  -76.0526 N.am      8 UNK        -0.4313 
     33 C         -72.5294   24.7995  -77.1042 C.2       8 UNK         0.5041 
     34 O         -71.5410   24.0722  -77.0069 O.2       8 UNK        -0.5577 
     35 CA        -73.0405   25.1844  -78.5056 C.3       7 UNK         0.0284 
     36 CB        -73.8491   24.0357  -79.1301 C.3       7 UNK        -0.1958 
     37 N         -73.8352   26.4197  -78.5086 N.am      7 UNK        -0.4454 
     38 C         -73.3132   27.6429  -78.3232 C.2       7 UNK         0.5089 
     39 O         -72.1107   27.8448  -78.1597 O.2       7 UNK        -0.5125 
     40 CA        -74.2831   28.8354  -78.2349 C.3       6 UNK         0.0408 
     41 CB        -74.4607   29.4863  -79.6146 C.3       6 UNK        -0.1791 
     42 N         -75.5956   28.4837  -77.6894 N.am      6 UNK        -0.4762 
     43 C         -75.8167   28.0208  -76.4510 C.2       6 UNK         0.5007 
     44 O         -74.9230   27.8872  -75.6109 O.2       6 UNK        -0.5032 
     45 CA        -77.2548   27.5840  -76.1002 C.3       5 UNK         0.0783 
     46 C46       -78.3409   28.1777  -77.0439 C.3       11 UNK        -0.0857 
     47 S47       -80.0261   27.7862  -76.4592 S.3       11 UNK        -0.2512 
     48 C48       -80.6106   29.4119  -75.8861 C.3       11 UNK         0.0225 
     49 N         -77.3432   26.1205  -76.0157 N.am      5 UNK        -0.4615 
     50 C         -77.0881   25.2541  -77.0087 C.2       4 UNK         0.5053 
     51 O         -76.6001   25.5687  -78.0947 O.2       4 UNK        -0.5105 
     52 CA        -77.4923   23.7961  -76.7632 C.3       4 UNK         0.0263 
     53 CB        -76.4567   23.0707  -75.8902 C.3       4 UNK        -0.1981 
     54 N         -78.8024   23.7353  -76.1189 N.am      4 UNK        -0.4224 
     55 C         -79.9812   23.8096  -76.7550 C.2       3 UNK         0.4895 
     56 O         -80.0867   23.8483  -77.9819 O.2       3 UNK        -0.5091 
     57 CA        -81.2589   23.8726  -75.8849 C.3       3 UNK         0.0250 
     58 CB        -82.4262   23.0656  -76.4923 C.3       3 UNK        -0.1996 
     59 N         -81.0394   23.5142  -74.4754 N.am      3 UNK        -0.4254 
     60 C         -80.6156   22.3374  -73.9885 C.2       2 UNK         0.5004 
     61 O         -80.5094   21.3157  -74.6683 O.2       2 UNK        -0.5226 
     62 CA        -80.1921   22.3040  -72.5044 C.3       2 UNK         0.0269 
     63 CB        -78.9921   21.3593  -72.2795 C.3       2 UNK        -0.1926 
     64 N         -79.9013   23.6126  -71.8931 N.am      2 UNK        -0.4687 
     65 C         -79.0121   24.5415  -72.2806 C.2       1 UNK         0.5165 
     66 O         -78.3880   24.4927  -73.3441 O.2       1 UNK        -0.5079 
     67 H67       -78.6932   24.7481  -66.9096 H         1 UNK         0.0900 
     68 H68       -77.2173   24.4292  -67.8232 H         1 UNK         0.0900 
     69 H69       -78.4206   23.1539  -67.6190 H         1 UNK         0.0900 
     70 H70       -77.2738   25.3118  -69.8788 H         1 UNK         0.2959 
     71 H71       -79.7588   26.1661  -71.1238 H         1 UNK         0.1079 
     72 H72       -78.2694   27.1832  -72.8336 H         1 UNK         0.0837 
     73 H73       -76.8870   26.3887  -72.1407 H         1 UNK         0.0837 
     74 H74       -79.9378   28.7309  -70.9496 H         1 UNK         0.0685 
     75 H75       -79.0282   30.0882  -70.3429 H         1 UNK         0.0685 
     76 H76       -80.4169   28.5628  -73.3097 H         1 UNK         0.1434 
     77 H77       -78.8800   31.5135  -76.0067 H         1 UNK         0.1329 
     78 H78       -77.5159   31.4092  -71.9398 H         1 UNK         0.1335 
     79 H79       -77.7388   33.6965  -73.9003 H         1 UNK         0.0680 
     80 H80       -77.1476   32.9804  -75.3792 H         1 UNK         0.0680 
     81 H81       -75.6057   30.6311  -74.7969 H         1 UNK         0.1032 
     82 H82       -74.3692   31.7030  -75.3962 H         1 UNK         0.1032 
     83 H83       -73.1672   31.3805  -73.1284 H         1 UNK         0.0461 
     84 H84       -75.2681   27.9948  -72.0396 H         1 UNK         0.3453 
     85 H85       -74.7804   28.1784  -73.7179 H         1 UNK         0.3453 
     86 H86       -73.2888   29.2229  -75.1485 H         1 UNK         0.2984 
     87 H87       -70.7739   29.0617  -76.0544 H         1 UNK         0.0554 
     88 H88       -68.7770   29.2816  -74.6262 H         1 UNK         0.0847 
     89 H89       -68.8490   27.6605  -75.2959 H         1 UNK         0.0847 
     90 H90       -69.2953   27.9439  -73.6139 H         1 UNK         0.0847 
     91 H91       -71.8503   27.1539  -76.1606 H         1 UNK         0.3141 
     92 H92       -72.0826   24.3702  -74.5305 H         1 UNK         0.0743 
     93 H93       -74.6959   25.8426  -73.9008 H         1 UNK         0.0784 
     94 H94       -74.4230   24.1020  -73.9182 H         1 UNK         0.0784 
     95 H95       -73.6665   25.0910  -72.6914 H         1 UNK         0.0784 
     96 H96       -73.9580   25.9415  -76.2253 H         1 UNK         0.3213 
     97 H97       -72.1620   25.3508  -79.1333 H         1 UNK         0.0855 
     98 H98       -73.2384   23.1363  -79.2190 H         1 UNK         0.0814 
     99 H99       -74.1954   24.2916  -80.1314 H         1 UNK         0.0814 
    100 H100      -74.7200   23.7746  -78.5307 H         1 UNK         0.0814 
    101 H101      -74.8445   26.3138  -78.5801 H         1 UNK         0.3105 
    102 H102      -73.8347   29.5740  -77.5670 H         1 UNK         0.0547 
    103 H103      -73.4975   29.7827  -80.0326 H         1 UNK         0.0837 
    104 H104      -74.9285   28.8052  -80.3267 H         1 UNK         0.0837 
    105 H105      -75.0747   30.3850  -79.5544 H         1 UNK         0.0837 
    106 H106      -76.3729   28.5196  -78.3331 H         1 UNK         0.3020 
    107 H107      -77.4382   27.9715  -75.0964 H         1 UNK         0.1245 
    108 H108      -78.2466   27.7788  -78.0553 H         1 UNK         0.0781 
    109 H109      -78.2325   29.2595  -77.1344 H         1 UNK         0.0781 
    110 H110      -81.6343   29.3123  -75.5224 H         1 UNK         0.0836 
    111 H111      -80.6547   30.0969  -76.7343 H         1 UNK         0.0836 
    112 H112      -77.7153   25.7511  -75.1503 H         1 UNK         0.3022 
    113 H113      -77.5394   23.2905  -77.7301 H         1 UNK         0.0747 
    114 H114      -75.4530   23.1558  -76.3077 H         1 UNK         0.0793 
    115 H115      -76.4279   23.4766  -74.8795 H         1 UNK         0.0793 
    116 H116      -76.6867   22.0080  -75.8115 H         1 UNK         0.0793 
    117 H117      -78.8016   23.7569  -75.1035 H         1 UNK         0.3047 
    118 H118      -81.5560   24.9225  -75.8805 H         1 UNK         0.0822 
    119 H119      -82.1734   22.0120  -76.6127 H         1 UNK         0.0807 
    120 H120      -82.6938   23.4473  -77.4784 H         1 UNK         0.0807 
    121 H121      -83.3188   23.1285  -75.8700 H         1 UNK         0.0807 
    122 H122      -81.0912   24.2824  -73.8212 H         1 UNK         0.2946 
    123 H123      -81.0457   21.8937  -71.9622 H         1 UNK         0.1144 
    124 H124      -78.7132   21.3158  -71.2266 H         1 UNK         0.0793 
    125 H125      -78.1163   21.6802  -72.8452 H         1 UNK         0.0793 
    126 H126      -79.2254   20.3402  -72.5904 H         1 UNK         0.0793 
    127 H127      -80.3385   23.7736  -70.9891 H         1 UNK         0.2896 
@<TRIPOS>BOND
     1    1    2 1    
     2    1   67 1    
     3    1   68 1    
     4    1   69 1    
     5    2    3 2    
     6    2    4 am   BACKBONE|DICT|INTERRES
     7    4    5 1    
     8    4   70 1    
     9    5    6 1    
    10    5   65 1    
    11    5   71 1    
    12    6    7 1    
    13    6   72 1    
    14    6   73 1    
    15    7    8 1    
    16    8    9 1    
    17    8   74 1    
    18    8   75 1    
    19    9   10 ar   
    20    9   14 ar   
    21   10   11 ar   
    22   10   76 1    
    23   11   12 ar   
    24   11   48 1    
    25   12   13 ar   
    26   12   77 1    
    27   13   14 ar   
    28   13   15 1    
    29   14   78 1    
    30   15   16 1    
    31   15   79 1    
    32   15   80 1    
    33   16   17 1    
    34   17   18 1    
    35   17   81 1    
    36   17   82 1    
    37   18   19 1    
    38   18   22 1    
    39   18   83 1    
    40   19   20 am   BACKBONE|DICT|INTERRES
    41   19   21 2    
    42   20   84 1    
    43   20   85 1    
    44   22   23 am   BACKBONE|DICT|INTERRES
    45   22   86 1    
    46   23   24 2    
    47   23   25 1    
    48   25   26 1    
    49   25   27 1    
    50   25   87 1    
    51   26   88 1    
    52   26   89 1    
    53   26   90 1    
    54   27   28 am   BACKBONE|DICT|INTERRES
    55   27   91 1    
    56   28   29 2    
    57   28   30 1    
    58   30   31 1    
    59   30   32 1    
    60   30   92 1    
    61   31   93 1    
    62   31   94 1    
    63   31   95 1    
    64   32   33 am   BACKBONE|DICT|INTERRES
    65   32   96 1    
    66   33   34 2    
    67   33   35 1    
    68   35   36 1    
    69   35   37 1    
    70   35   97 1    
    71   36   98 1    
    72   36   99 1    
    73   36  100 1    
    74   37   38 am   BACKBONE|DICT|INTERRES
    75   37  101 1    
    76   38   39 2    
    77   38   40 1    
    78   40   41 1    
    79   40   42 1    
    80   40  102 1    
    81   41  103 1    
    82   41  104 1    
    83   41  105 1    
    84   42   43 am   BACKBONE|DICT|INTERRES
    85   42  106 1    
    86   43   44 2    
    87   43   45 1    
    88   45   46 1    
    89   45   49 1    
    90   45  107 1    
    91   46   47 1    
    92   46  108 1    
    93   46  109 1    
    94   47   48 1    
    95   48  110 1    
    96   48  111 1    
    97   49   50 am   BACKBONE|DICT|INTERRES
    98   49  112 1    
    99   50   51 2    
   100   50   52 1    
   101   52   53 1    
   102   52   54 1    
   103   52  113 1    
   104   53  114 1    
   105   53  115 1    
   106   53  116 1    
   107   54   55 am   BACKBONE|DICT|INTERRES
   108   54  117 1    
   109   55   56 2    
   110   55   57 1    
   111   57   58 1    
   112   57   59 1    
   113   57  118 1    
   114   58  119 1    
   115   58  120 1    
   116   58  121 1    
   117   59   60 am   BACKBONE|DICT|INTERRES
   118   59  122 1    
   119   60   61 2    
   120   60   62 1    
   121   62   63 1    
   122   62   64 1    
   123   62  123 1    
   124   63  124 1    
   125   63  125 1    
   126   63  126 1    
   127   64   65 am   BACKBONE|DICT|INTERRES
   128   64  127 1    
   129   65   66 2    
@<TRIPOS>SUBSTRUCTURE
     1 UNK         1 GROUP             0       ****    0 ROOT    
