@<TRIPOS>MOLECULE
3R135
127   129    1
SMALL
USER_CHARGES


@<TRIPOS>ATOM
      1 CA        -78.8151   29.2577  -75.1015 C.3       0 UNK        -0.1998 
      2 C         -80.1116   28.5204  -74.8025 C.2       0 UNK         0.4909 
      3 O         -80.9141   28.2954  -75.7077 O.2       0 UNK        -0.5240 
      4 N         -80.3099   28.1576  -73.5295 N.am      1 UNK        -0.4739 
      5 CA        -81.5478   27.6330  -72.9411 C.3       1 UNK         0.0864 
      6 C6        -82.6628   28.7060  -72.8205 C.3       11 UNK        -0.0881 
      7 S7        -82.1398   30.2822  -72.0420 S.3       11 UNK        -0.2682 
      8 C8        -81.3916   29.7895  -70.4475 C.3       11 UNK         0.0289 
      9 C9        -79.9022   29.4740  -70.5642 C.ar      11 UNK        -0.0687 
     10 C10       -79.4259   28.1846  -70.2956 C.ar      11 UNK        -0.0823 
     11 C11       -78.0702   27.8866  -70.4467 C.ar      11 UNK        -0.0830 
     12 C12       -77.1770   28.9072  -70.7674 C.ar      11 UNK        -0.1021 
     13 C13       -77.6303   30.1937  -71.0632 C.ar      11 UNK        -0.0753 
     14 C14       -78.9978   30.4717  -70.9523 C.ar      11 UNK        -0.0933 
     15 C15       -76.6480   31.2712  -71.5167 C.3       11 UNK         0.0166 
     16 S16       -75.7251   30.7970  -73.0259 S.3       11 UNK        -0.2615 
     17 C17       -74.3327   29.8258  -72.3447 C.3       11 UNK        -0.0865 
     18 CA        -72.9676   30.1914  -72.9763 C.3       10 UNK         0.0862 
     19 C         -71.8045   29.5989  -72.1352 C.2       10 UNK         0.5551 
     20 N         -71.0831   30.4297  -71.3956 N.am      10 UNK        -0.7319 
     21 O         -71.5891   28.3890  -72.1101 O.2       10 UNK        -0.5018 
     22 N         -72.8869   29.7405  -74.3711 N.am      10 UNK        -0.4509 
     23 C         -71.9530   30.1439  -75.2413 C.2       10 UNK         0.4899 
     24 O         -71.1361   31.0367  -75.0062 O.2       10 UNK        -0.4839 
     25 CA        -71.9356   29.4161  -76.5973 C.3       9 UNK         0.0222 
     26 CB        -70.7897   29.8737  -77.5245 C.3       9 UNK        -0.1966 
     27 N         -71.9354   27.9577  -76.4417 N.am      9 UNK        -0.4218 
     28 C         -71.0149   27.1866  -75.8409 C.2       9 UNK         0.5020 
     29 O         -69.9633   27.6133  -75.3621 O.2       9 UNK        -0.5274 
     30 CA        -71.3095   25.6747  -75.7495 C.3       8 UNK         0.0270 
     31 CB        -71.7060   25.2980  -74.3122 C.3       8 UNK        -0.1976 
     32 N         -72.3590   25.2191  -76.6668 N.am      8 UNK        -0.4313 
     33 C         -72.2302   25.1211  -77.9977 C.2       8 UNK         0.5041 
     34 O         -71.1708   25.3004  -78.5992 O.2       8 UNK        -0.5577 
     35 CA        -73.5144   24.8276  -78.7959 C.3       7 UNK         0.0284 
     36 CB        -73.7996   23.3184  -78.8464 C.3       7 UNK        -0.1958 
     37 N         -74.6821   25.5383  -78.2625 N.am      7 UNK        -0.4454 
     38 C         -74.8083   26.8734  -78.2261 C.2       7 UNK         0.5089 
     39 O         -73.9888   27.6528  -78.7088 O.2       7 UNK        -0.5125 
     40 CA        -76.0192   27.4404  -77.4733 C.3       6 UNK         0.0408 
     41 CB        -77.2495   27.5063  -78.3946 C.3       6 UNK        -0.1791 
     42 N         -76.3200   26.6611  -76.2697 N.am      6 UNK        -0.4762 
     43 C         -75.6174   26.7227  -75.1262 C.2       6 UNK         0.5007 
     44 O         -74.6527   27.4690  -74.9580 O.2       6 UNK        -0.5032 
     45 CA        -76.0736   25.7890  -73.9809 C.3       5 UNK         0.0783 
     46 C46       -77.2250   26.4671  -73.2037 C.3       11 UNK        -0.0857 
     47 S47       -77.9268   25.4767  -71.8316 S.3       11 UNK        -0.2512 
     48 C48       -77.5612   26.4565  -70.3301 C.3       11 UNK         0.0225 
     49 N         -76.4737   24.4701  -74.4728 N.am      5 UNK        -0.4615 
     50 C         -75.7002   23.6089  -75.1452 C.2       4 UNK         0.5053 
     51 O         -74.5052   23.7899  -75.3721 O.2       4 UNK        -0.5105 
     52 CA        -76.4171   22.3791  -75.7299 C.3       4 UNK         0.0263 
     53 CB        -76.4643   21.2397  -74.7009 C.3       4 UNK        -0.1981 
     54 N         -77.7795   22.6955  -76.1760 N.am      4 UNK        -0.4224 
     55 C         -78.0898   23.5867  -77.1262 C.2       3 UNK         0.4895 
     56 O         -77.2418   24.1625  -77.8071 O.2       3 UNK        -0.5091 
     57 CA        -79.5724   23.9652  -77.3029 C.3       3 UNK         0.0250 
     58 CB        -80.3041   22.9365  -78.1863 C.3       3 UNK        -0.1996 
     59 N         -80.3016   24.2260  -76.0468 N.am      3 UNK        -0.4254 
     60 C         -80.6178   23.3626  -75.0693 C.2       2 UNK         0.5004 
     61 O         -80.2781   22.1780  -75.0741 O.2       2 UNK        -0.5226 
     62 CA        -81.4244   23.9108  -73.8806 C.3       2 UNK         0.0269 
     63 CB        -81.1978   23.0870  -72.5975 C.3       2 UNK        -0.1926 
     64 N         -81.1165   25.3158  -73.5903 N.am      2 UNK        -0.4687 
     65 C         -82.0207   26.3050  -73.5688 C.2       1 UNK         0.5165 
     66 O         -83.1780   26.1840  -73.9753 O.2       1 UNK        -0.5079 
     67 H67       -78.1339   28.6206  -75.6584 H         1 UNK         0.0900 
     68 H68       -79.0165   30.1463  -75.6989 H         1 UNK         0.0900 
     69 H69       -78.3114   29.5765  -74.1888 H         1 UNK         0.0900 
     70 H70       -79.5997   28.3905  -72.8479 H         1 UNK         0.2959 
     71 H71       -81.3026   27.3380  -71.9252 H         1 UNK         0.1079 
     72 H72       -83.5054   28.3133  -72.2483 H         1 UNK         0.0837 
     73 H73       -83.0571   28.9445  -73.8100 H         1 UNK         0.0837 
     74 H74       -81.5134   30.6125  -69.7420 H         1 UNK         0.0685 
     75 H75       -81.9454   28.9480  -70.0285 H         1 UNK         0.0685 
     76 H76       -80.1106   27.3992  -70.0063 H         1 UNK         0.1434 
     77 H77       -76.1285   28.6713  -70.8438 H         1 UNK         0.1329 
     78 H78       -79.3660   31.4640  -71.1753 H         1 UNK         0.1335 
     79 H79       -75.9577   31.5062  -70.7057 H         1 UNK         0.0680 
     80 H80       -77.1840   32.1967  -71.7322 H         1 UNK         0.0680 
     81 H81       -74.5385   28.7632  -72.4858 H         1 UNK         0.1032 
     82 H82       -74.2917   29.9888  -71.2661 H         1 UNK         0.1032 
     83 H83       -72.8760   31.2798  -72.9704 H         1 UNK         0.0461 
     84 H84       -71.2571   31.4227  -71.4074 H         1 UNK         0.3453 
     85 H85       -70.3357   30.0589  -70.8298 H         1 UNK         0.3453 
     86 H86       -73.5022   28.9730  -74.6278 H         1 UNK         0.2984 
     87 H87       -72.8756   29.6687  -77.0900 H         1 UNK         0.0554 
     88 H88       -70.8572   30.9429  -77.7286 H         1 UNK         0.0847 
     89 H89       -70.8284   29.3577  -78.4839 H         1 UNK         0.0847 
     90 H90       -69.8099   29.6892  -77.0831 H         1 UNK         0.0847 
     91 H91       -72.7577   27.4943  -76.8046 H         1 UNK         0.3141 
     92 H92       -70.3873   25.1465  -76.0001 H         1 UNK         0.0743 
     93 H93       -70.9276   25.5847  -73.6035 H         1 UNK         0.0784 
     94 H94       -72.6237   25.7999  -74.0038 H         1 UNK         0.0784 
     95 H95       -71.8599   24.2236  -74.2096 H         1 UNK         0.0784 
     96 H96       -73.2442   24.9459  -76.2458 H         1 UNK         0.3213 
     97 H97       -73.3560   25.1779  -79.8182 H         1 UNK         0.0855 
     98 H98       -73.9263   22.8955  -77.8502 H         1 UNK         0.0814 
     99 H99       -72.9758   22.7846  -79.3220 H         1 UNK         0.0814 
    100 H100      -74.7013   23.1023  -79.4200 H         1 UNK         0.0814 
    101 H101      -75.4464   24.9741  -77.9022 H         1 UNK         0.3105 
    102 H102      -75.7770   28.4605  -77.1666 H         1 UNK         0.0547 
    103 H103      -77.0563   28.1626  -79.2441 H         1 UNK         0.0837 
    104 H104      -78.1245   27.9002  -77.8794 H         1 UNK         0.0837 
    105 H105      -77.5135   26.5305  -78.8010 H         1 UNK         0.0837 
    106 H106      -77.0497   25.9683  -76.3547 H         1 UNK         0.3020 
    107 H107      -75.2238   25.6519  -73.3085 H         1 UNK         0.1245 
    108 H108      -78.0495   26.6692  -73.8855 H         1 UNK         0.0781 
    109 H109      -76.8919   27.4380  -72.8459 H         1 UNK         0.0781 
    110 H110      -76.4854   26.4409  -70.1481 H         1 UNK         0.0836 
    111 H111      -78.0222   25.9722  -69.4681 H         1 UNK         0.0836 
    112 H112      -77.4327   24.2091  -74.3025 H         1 UNK         0.3022 
    113 H113      -75.8493   22.0400  -76.5982 H         1 UNK         0.0747 
    114 H114      -75.4606   20.9775  -74.3631 H         1 UNK         0.0793 
    115 H115      -77.0457   21.5134  -73.8194 H         1 UNK         0.0793 
    116 H116      -76.9074   20.3396  -75.1276 H         1 UNK         0.0793 
    117 H117      -78.5558   22.2730  -75.6692 H         1 UNK         0.3047 
    118 H118      -79.5818   24.9137  -77.8428 H         1 UNK         0.0822 
    119 H119      -81.3318   23.2425  -78.3819 H         1 UNK         0.0807 
    120 H120      -80.3304   21.9464  -77.7304 H         1 UNK         0.0807 
    121 H121      -79.8082   22.8329  -79.1525 H         1 UNK         0.0807 
    122 H122      -80.6175   25.1793  -75.9248 H         1 UNK         0.2946 
    123 H123      -82.4739   23.8003  -74.1630 H         1 UNK         0.1144 
    124 H124      -80.1513   23.0993  -72.2904 H         1 UNK         0.0793 
    125 H125      -81.4854   22.0444  -72.7401 H         1 UNK         0.0793 
    126 H126      -81.7937   23.4713  -71.7696 H         1 UNK         0.0793 
    127 H127      -80.1817   25.5098  -73.2568 H         1 UNK         0.2896 
@<TRIPOS>BOND
     1    1    2 1    
     2    1   67 1    
     3    1   68 1    
     4    1   69 1    
     5    2    3 2    
     6    2    4 am   BACKBONE|DICT|INTERRES
     7    4    5 1    
     8    4   70 1    
     9    5    6 1    
    10    5   65 1    
    11    5   71 1    
    12    6    7 1    
    13    6   72 1    
    14    6   73 1    
    15    7    8 1    
    16    8    9 1    
    17    8   74 1    
    18    8   75 1    
    19    9   10 ar   
    20    9   14 ar   
    21   10   11 ar   
    22   10   76 1    
    23   11   12 ar   
    24   11   48 1    
    25   12   13 ar   
    26   12   77 1    
    27   13   14 ar   
    28   13   15 1    
    29   14   78 1    
    30   15   16 1    
    31   15   79 1    
    32   15   80 1    
    33   16   17 1    
    34   17   18 1    
    35   17   81 1    
    36   17   82 1    
    37   18   19 1    
    38   18   22 1    
    39   18   83 1    
    40   19   20 am   BACKBONE|DICT|INTERRES
    41   19   21 2    
    42   20   84 1    
    43   20   85 1    
    44   22   23 am   BACKBONE|DICT|INTERRES
    45   22   86 1    
    46   23   24 2    
    47   23   25 1    
    48   25   26 1    
    49   25   27 1    
    50   25   87 1    
    51   26   88 1    
    52   26   89 1    
    53   26   90 1    
    54   27   28 am   BACKBONE|DICT|INTERRES
    55   27   91 1    
    56   28   29 2    
    57   28   30 1    
    58   30   31 1    
    59   30   32 1    
    60   30   92 1    
    61   31   93 1    
    62   31   94 1    
    63   31   95 1    
    64   32   33 am   BACKBONE|DICT|INTERRES
    65   32   96 1    
    66   33   34 2    
    67   33   35 1    
    68   35   36 1    
    69   35   37 1    
    70   35   97 1    
    71   36   98 1    
    72   36   99 1    
    73   36  100 1    
    74   37   38 am   BACKBONE|DICT|INTERRES
    75   37  101 1    
    76   38   39 2    
    77   38   40 1    
    78   40   41 1    
    79   40   42 1    
    80   40  102 1    
    81   41  103 1    
    82   41  104 1    
    83   41  105 1    
    84   42   43 am   BACKBONE|DICT|INTERRES
    85   42  106 1    
    86   43   44 2    
    87   43   45 1    
    88   45   46 1    
    89   45   49 1    
    90   45  107 1    
    91   46   47 1    
    92   46  108 1    
    93   46  109 1    
    94   47   48 1    
    95   48  110 1    
    96   48  111 1    
    97   49   50 am   BACKBONE|DICT|INTERRES
    98   49  112 1    
    99   50   51 2    
   100   50   52 1    
   101   52   53 1    
   102   52   54 1    
   103   52  113 1    
   104   53  114 1    
   105   53  115 1    
   106   53  116 1    
   107   54   55 am   BACKBONE|DICT|INTERRES
   108   54  117 1    
   109   55   56 2    
   110   55   57 1    
   111   57   58 1    
   112   57   59 1    
   113   57  118 1    
   114   58  119 1    
   115   58  120 1    
   116   58  121 1    
   117   59   60 am   BACKBONE|DICT|INTERRES
   118   59  122 1    
   119   60   61 2    
   120   60   62 1    
   121   62   63 1    
   122   62   64 1    
   123   62  123 1    
   124   63  124 1    
   125   63  125 1    
   126   63  126 1    
   127   64   65 am   BACKBONE|DICT|INTERRES
   128   64  127 1    
   129   65   66 2    
@<TRIPOS>SUBSTRUCTURE
     1 UNK         1 GROUP             0       ****    0 ROOT    
