@<TRIPOS>MOLECULE
3R135
127   129    1
SMALL
USER_CHARGES


@<TRIPOS>ATOM
      1 CA        -84.7245   26.9810  -75.1566 C.3       0 UNK        -0.1998 
      2 C         -83.6824   27.7933  -75.9104 C.2       0 UNK         0.4909 
      3 O         -83.8312   28.0200  -77.1110 O.2       0 UNK        -0.5240 
      4 N         -82.6207   28.2252  -75.2175 N.am      1 UNK        -0.4739 
      5 CA        -81.5162   29.0221  -75.7719 C.3       1 UNK         0.0864 
      6 C6        -80.8394   29.8818  -74.6736 C.3       11 UNK        -0.0881 
      7 S7        -80.0877   28.9250  -73.3049 S.3       11 UNK        -0.2682 
      8 C8        -78.3446   28.9319  -73.8226 C.3       11 UNK         0.0289 
      9 C9        -77.4106   28.5286  -72.6946 C.ar      11 UNK        -0.0687 
     10 C10       -77.0811   27.1857  -72.4941 C.ar      11 UNK        -0.0823 
     11 C11       -76.1705   26.8196  -71.4970 C.ar      11 UNK        -0.0830 
     12 C12       -75.6102   27.8073  -70.6811 C.ar      11 UNK        -0.1021 
     13 C13       -75.9381   29.1536  -70.8693 C.ar      11 UNK        -0.0753 
     14 C14       -76.8398   29.5073  -71.8765 C.ar      11 UNK        -0.0933 
     15 C15       -75.3308   30.2326  -69.9856 C.3       11 UNK         0.0166 
     16 S16       -73.8995   31.0289  -70.7798 S.3       11 UNK        -0.2615 
     17 C17       -72.5712   29.8374  -70.3978 C.3       11 UNK        -0.0865 
     18 CA        -71.4003   29.8989  -71.4099 C.3       10 UNK         0.0862 
     19 C         -70.2331   28.9904  -70.9315 C.2       10 UNK         0.5551 
     20 N         -69.2852   29.5411  -70.1857 N.am      10 UNK        -0.7319 
     21 O         -70.2067   27.7886  -71.1900 O.2       10 UNK        -0.5018 
     22 N         -71.8531   29.5806  -72.7722 N.am      10 UNK        -0.4509 
     23 C         -71.0971   29.6515  -73.8756 C.2       10 UNK         0.4899 
     24 O         -69.9373   30.0657  -73.8918 O.2       10 UNK        -0.4839 
     25 CA        -71.7385   29.1835  -75.1925 C.3       9 UNK         0.0222 
     26 CB        -71.3996   27.7072  -75.4557 C.3       9 UNK        -0.1966 
     27 N         -73.1919   29.3530  -75.2276 N.am      9 UNK        -0.4218 
     28 C         -73.8390   30.5184  -75.3499 C.2       9 UNK         0.5020 
     29 O         -73.2730   31.6108  -75.4219 O.2       9 UNK        -0.5274 
     30 CA        -75.3769   30.4295  -75.4500 C.3       8 UNK         0.0270 
     31 CB        -76.0526   31.8125  -75.5065 C.3       8 UNK        -0.1976 
     32 N         -75.8083   29.6357  -76.6085 N.am      8 UNK        -0.4313 
     33 C         -75.7252   28.3024  -76.6928 C.2       8 UNK         0.5041 
     34 O         -75.3453   27.5918  -75.7565 O.2       8 UNK        -0.5577 
     35 CA        -76.0511   27.6556  -78.0463 C.3       7 UNK         0.0284 
     36 CB        -75.0452   28.1137  -79.1243 C.3       7 UNK        -0.1958 
     37 N         -75.9678   26.2125  -77.8446 N.am      7 UNK        -0.4454 
     38 C         -76.2530   25.2278  -78.7003 C.2       7 UNK         0.5089 
     39 O         -76.6676   25.4198  -79.8436 O.2       7 UNK        -0.5125 
     40 CA        -76.0881   23.7772  -78.1985 C.3       6 UNK         0.0408 
     41 CB        -75.0672   22.9960  -79.0514 C.3       6 UNK        -0.1791 
     42 N         -75.8122   23.6440  -76.7557 N.am      6 UNK        -0.4762 
     43 C         -74.6794   23.9288  -76.0895 C.2       6 UNK         0.5007 
     44 O         -73.6637   24.3609  -76.6337 O.2       6 UNK        -0.5032 
     45 CA        -74.6732   23.7329  -74.5567 C.3       5 UNK         0.0783 
     46 C46       -74.5256   25.0953  -73.8362 C.3       11 UNK        -0.0857 
     47 S47       -74.1929   24.9325  -72.0480 S.3       11 UNK        -0.2512 
     48 C48       -75.7971   25.3576  -71.2917 C.3       11 UNK         0.0225 
     49 N         -75.8528   23.0070  -74.0766 N.am      5 UNK        -0.4615 
     50 C         -76.0076   21.6809  -74.0736 C.2       4 UNK         0.5053 
     51 O         -75.1745   20.8973  -74.5286 O.2       4 UNK        -0.5105 
     52 CA        -77.3051   21.1289  -73.4512 C.3       4 UNK         0.0263 
     53 CB        -77.2362   21.1769  -71.9117 C.3       4 UNK        -0.1981 
     54 N         -78.5531   21.7343  -73.9473 N.am      4 UNK        -0.4224 
     55 C         -78.9807   23.0002  -73.8342 C.2       3 UNK         0.4895 
     56 O         -78.3426   23.9072  -73.2980 O.2       3 UNK        -0.5091 
     57 CA        -80.3658   23.3153  -74.4150 C.3       3 UNK         0.0250 
     58 CB        -81.3878   23.5362  -73.2880 C.3       3 UNK        -0.1996 
     59 N         -80.3093   24.5118  -75.2542 N.am      3 UNK        -0.4254 
     60 C         -79.7413   24.5528  -76.4681 C.2       2 UNK         0.5004 
     61 O         -79.2336   23.5678  -77.0036 O.2       2 UNK        -0.5226 
     62 CA        -79.7466   25.8978  -77.2148 C.3       2 UNK         0.0269 
     63 CB        -80.0969   25.7347  -78.7064 C.3       2 UNK        -0.1926 
     64 N         -80.6590   26.8598  -76.5954 N.am      2 UNK        -0.4687 
     65 C         -80.4838   28.1861  -76.5656 C.2       1 UNK         0.5165 
     66 O         -79.5358   28.7542  -77.1109 O.2       1 UNK        -0.5079 
     67 H67       -84.8281   25.9935  -75.6055 H         1 UNK         0.0900 
     68 H68       -85.6925   27.4793  -75.2022 H         1 UNK         0.0900 
     69 H69       -84.4598   26.8507  -74.1074 H         1 UNK         0.0900 
     70 H70       -82.5456   28.0172  -74.2309 H         1 UNK         0.2959 
     71 H71       -81.9429   29.7171  -76.4990 H         1 UNK         0.1079 
     72 H72       -80.0975   30.5496  -75.1155 H         1 UNK         0.0837 
     73 H73       -81.5845   30.5463  -74.2335 H         1 UNK         0.0837 
     74 H74       -78.2096   28.2605  -74.6715 H         1 UNK         0.0685 
     75 H75       -78.0788   29.9284  -74.1745 H         1 UNK         0.0685 
     76 H76       -77.5227   26.4281  -73.1270 H         1 UNK         0.1434 
     77 H77       -74.9149   27.5242  -69.9029 H         1 UNK         0.1329 
     78 H78       -77.0892   30.5484  -72.0302 H         1 UNK         0.1335 
     79 H79       -75.0381   29.8231  -69.0174 H         1 UNK         0.0680 
     80 H80       -76.0827   30.9950  -69.7763 H         1 UNK         0.0680 
     81 H81       -72.9794   28.8266  -70.3647 H         1 UNK         0.1032 
     82 H82       -72.2170   30.0542  -69.3879 H         1 UNK         0.1032 
     83 H83       -71.0320   30.9267  -71.4363 H         1 UNK         0.0461 
     84 H84       -68.5282   28.9654  -69.8514 H         1 UNK         0.3453 
     85 H85       -69.3034   30.5238  -69.9603 H         1 UNK         0.3453 
     86 H86       -72.7961   29.2324  -72.8555 H         1 UNK         0.2984 
     87 H87       -71.3112   29.7801  -76.0012 H         1 UNK         0.0554 
     88 H88       -71.8265   27.3590  -76.3968 H         1 UNK         0.0847 
     89 H89       -71.7699   27.0605  -74.6596 H         1 UNK         0.0847 
     90 H90       -70.3203   27.5608  -75.5153 H         1 UNK         0.0847 
     91 H91       -73.7651   28.5113  -75.2269 H         1 UNK         0.3141 
     92 H92       -75.7137   29.9314  -74.5404 H         1 UNK         0.0743 
     93 H93       -75.7966   32.4062  -74.6278 H         1 UNK         0.0784 
     94 H94       -75.7414   32.3787  -76.3853 H         1 UNK         0.0784 
     95 H95       -77.1389   31.7265  -75.5323 H         1 UNK         0.0784 
     96 H96       -76.1036   30.1554  -77.4227 H         1 UNK         0.3213 
     97 H97       -77.0701   27.9215  -78.3342 H         1 UNK         0.0855 
     98 H98       -75.0799   29.1936  -79.2705 H         1 UNK         0.0814 
     99 H99       -75.2561   27.6612  -80.0929 H         1 UNK         0.0814 
    100 H100      -74.0213   27.8537  -78.8518 H         1 UNK         0.0814 
    101 H101      -75.6258   25.9754  -76.9195 H         1 UNK         0.3105 
    102 H102      -77.0542   23.2980  -78.3555 H         1 UNK         0.0547 
    103 H103      -75.3837   22.9575  -80.0944 H         1 UNK         0.0837 
    104 H104      -74.0800   23.4579  -79.0355 H         1 UNK         0.0837 
    105 H105      -74.9648   21.9671  -78.7070 H         1 UNK         0.0837 
    106 H106      -76.5942   23.3131  -76.2066 H         1 UNK         0.3020 
    107 H107      -73.7865   23.1352  -74.3323 H         1 UNK         0.1245 
    108 H108      -75.4145   25.7021  -73.9975 H         1 UNK         0.0781 
    109 H109      -73.6974   25.6669  -74.2579 H         1 UNK         0.0781 
    110 H110      -75.7437   25.1468  -70.2227 H         1 UNK         0.0836 
    111 H111      -76.5712   24.7005  -71.6833 H         1 UNK         0.0836 
    112 H112      -76.6166   23.5629  -73.6969 H         1 UNK         0.3022 
    113 H113      -77.3589   20.0772  -73.7379 H         1 UNK         0.0747 
    114 H114      -78.1033   20.6934  -71.4617 H         1 UNK         0.0793 
    115 H115      -76.3497   20.6575  -71.5453 H         1 UNK         0.0793 
    116 H116      -77.1903   22.1986  -71.5339 H         1 UNK         0.0793 
    117 H117      -79.1547   21.0914  -74.4445 H         1 UNK         0.3047 
    118 H118      -80.7026   22.4763  -75.0283 H         1 UNK         0.0822 
    119 H119      -82.3822   23.7385  -73.6867 H         1 UNK         0.0807 
    120 H120      -81.1067   24.3717  -72.6450 H         1 UNK         0.0807 
    121 H121      -81.4671   22.6514  -72.6549 H         1 UNK         0.0807 
    122 H122      -80.6164   25.3733  -74.8298 H         1 UNK         0.2946 
    123 H123      -78.7274   26.2806  -77.1377 H         1 UNK         0.1144 
    124 H124      -80.0120   26.6822  -79.2388 H         1 UNK         0.0793 
    125 H125      -81.1132   25.3631  -78.8408 H         1 UNK         0.0793 
    126 H126      -79.4232   25.0322  -79.1986 H         1 UNK         0.0793 
    127 H127      -81.4929   26.4846  -76.1667 H         1 UNK         0.2896 
@<TRIPOS>BOND
     1    1    2 1    
     2    1   67 1    
     3    1   68 1    
     4    1   69 1    
     5    2    3 2    
     6    2    4 am   BACKBONE|DICT|INTERRES
     7    4    5 1    
     8    4   70 1    
     9    5    6 1    
    10    5   65 1    
    11    5   71 1    
    12    6    7 1    
    13    6   72 1    
    14    6   73 1    
    15    7    8 1    
    16    8    9 1    
    17    8   74 1    
    18    8   75 1    
    19    9   10 ar   
    20    9   14 ar   
    21   10   11 ar   
    22   10   76 1    
    23   11   12 ar   
    24   11   48 1    
    25   12   13 ar   
    26   12   77 1    
    27   13   14 ar   
    28   13   15 1    
    29   14   78 1    
    30   15   16 1    
    31   15   79 1    
    32   15   80 1    
    33   16   17 1    
    34   17   18 1    
    35   17   81 1    
    36   17   82 1    
    37   18   19 1    
    38   18   22 1    
    39   18   83 1    
    40   19   20 am   BACKBONE|DICT|INTERRES
    41   19   21 2    
    42   20   84 1    
    43   20   85 1    
    44   22   23 am   BACKBONE|DICT|INTERRES
    45   22   86 1    
    46   23   24 2    
    47   23   25 1    
    48   25   26 1    
    49   25   27 1    
    50   25   87 1    
    51   26   88 1    
    52   26   89 1    
    53   26   90 1    
    54   27   28 am   BACKBONE|DICT|INTERRES
    55   27   91 1    
    56   28   29 2    
    57   28   30 1    
    58   30   31 1    
    59   30   32 1    
    60   30   92 1    
    61   31   93 1    
    62   31   94 1    
    63   31   95 1    
    64   32   33 am   BACKBONE|DICT|INTERRES
    65   32   96 1    
    66   33   34 2    
    67   33   35 1    
    68   35   36 1    
    69   35   37 1    
    70   35   97 1    
    71   36   98 1    
    72   36   99 1    
    73   36  100 1    
    74   37   38 am   BACKBONE|DICT|INTERRES
    75   37  101 1    
    76   38   39 2    
    77   38   40 1    
    78   40   41 1    
    79   40   42 1    
    80   40  102 1    
    81   41  103 1    
    82   41  104 1    
    83   41  105 1    
    84   42   43 am   BACKBONE|DICT|INTERRES
    85   42  106 1    
    86   43   44 2    
    87   43   45 1    
    88   45   46 1    
    89   45   49 1    
    90   45  107 1    
    91   46   47 1    
    92   46  108 1    
    93   46  109 1    
    94   47   48 1    
    95   48  110 1    
    96   48  111 1    
    97   49   50 am   BACKBONE|DICT|INTERRES
    98   49  112 1    
    99   50   51 2    
   100   50   52 1    
   101   52   53 1    
   102   52   54 1    
   103   52  113 1    
   104   53  114 1    
   105   53  115 1    
   106   53  116 1    
   107   54   55 am   BACKBONE|DICT|INTERRES
   108   54  117 1    
   109   55   56 2    
   110   55   57 1    
   111   57   58 1    
   112   57   59 1    
   113   57  118 1    
   114   58  119 1    
   115   58  120 1    
   116   58  121 1    
   117   59   60 am   BACKBONE|DICT|INTERRES
   118   59  122 1    
   119   60   61 2    
   120   60   62 1    
   121   62   63 1    
   122   62   64 1    
   123   62  123 1    
   124   63  124 1    
   125   63  125 1    
   126   63  126 1    
   127   64   65 am   BACKBONE|DICT|INTERRES
   128   64  127 1    
   129   65   66 2    
@<TRIPOS>SUBSTRUCTURE
     1 UNK         1 GROUP             0       ****    0 ROOT    
