@<TRIPOS>MOLECULE
3R135
127   129    1
SMALL
USER_CHARGES


@<TRIPOS>ATOM
      1 CA        -83.3400   26.3859  -70.1205 C.3       0 UNK        -0.1998 
      2 C         -83.4289   26.9218  -71.5415 C.2       0 UNK         0.4909 
      3 O         -84.5142   26.9427  -72.1228 O.2       0 UNK        -0.5240 
      4 N         -82.2935   27.3540  -72.1047 N.am      1 UNK        -0.4739 
      5 CA        -82.1877   27.8907  -73.4687 C.3       1 UNK         0.0864 
      6 C6        -80.8973   28.7258  -73.6524 C.3       11 UNK        -0.0881 
      7 S7        -80.9401   30.2894  -72.7096 S.3       11 UNK        -0.2682 
      8 C8        -80.0098   29.8925  -71.1909 C.3       11 UNK         0.0289 
      9 C9        -78.5949   29.4006  -71.4678 C.ar      11 UNK        -0.0687 
     10 C10       -78.1845   28.1491  -71.0007 C.ar      11 UNK        -0.0823 
     11 C11       -76.8935   27.6791  -71.2635 C.ar      11 UNK        -0.0830 
     12 C12       -76.0045   28.4892  -71.9770 C.ar      11 UNK        -0.1021 
     13 C13       -76.3964   29.7484  -72.4479 C.ar      11 UNK        -0.0753 
     14 C14       -77.6937   30.1965  -72.1813 C.ar      11 UNK        -0.0933 
     15 C15       -75.4393   30.6615  -73.2132 C.3       11 UNK         0.0166 
     16 S16       -74.2449   29.7814  -74.2766 S.3       11 UNK        -0.2615 
     17 C17       -73.5386   31.1670  -75.2368 C.3       11 UNK        -0.0865 
     18 CA        -72.1554   31.6600  -74.7343 C.3       10 UNK         0.0862 
     19 C         -72.2551   32.4945  -73.4239 C.2       10 UNK         0.5551 
     20 N         -71.5638   32.1327  -72.3497 N.am      10 UNK        -0.7319 
     21 O         -72.9634   33.4976  -73.3875 O.2       10 UNK        -0.5018 
     22 N         -71.1762   30.5633  -74.6971 N.am      10 UNK        -0.4509 
     23 C         -69.8594   30.6938  -74.9005 C.2       10 UNK         0.4899 
     24 O         -69.3130   31.7684  -75.1519 O.2       10 UNK        -0.4839 
     25 CA        -68.9889   29.4232  -74.8037 C.3       9 UNK         0.0222 
     26 CB        -68.0766   29.4922  -73.5669 C.3       9 UNK        -0.1966 
     27 N         -69.7392   28.1614  -74.7686 N.am      9 UNK        -0.4218 
     28 C         -70.4450   27.6465  -75.7847 C.2       9 UNK         0.5020 
     29 O         -70.5454   28.1885  -76.8885 O.2       9 UNK        -0.5274 
     30 CA        -71.1537   26.3081  -75.5210 C.3       8 UNK         0.0270 
     31 CB        -71.7724   26.2164  -74.1098 C.3       8 UNK        -0.1976 
     32 N         -72.1990   26.1196  -76.5213 N.am      8 UNK        -0.4313 
     33 C         -72.6236   24.9572  -77.0211 C.2       8 UNK         0.5041 
     34 O         -72.1600   23.8625  -76.6938 O.2       8 UNK        -0.5577 
     35 CA        -73.7719   25.0422  -78.0487 C.3       7 UNK         0.0284 
     36 CB        -74.0821   23.6810  -78.6987 C.3       7 UNK        -0.1958 
     37 N         -74.9974   25.5697  -77.4420 N.am      7 UNK        -0.4454 
     38 C         -75.2112   26.8474  -77.0979 C.2       7 UNK         0.5089 
     39 O         -74.4281   27.7603  -77.3655 O.2       7 UNK        -0.5125 
     40 CA        -76.4934   27.1616  -76.3057 C.3       6 UNK         0.0408 
     41 CB        -77.6373   27.5425  -77.2570 C.3       6 UNK        -0.1791 
     42 N         -76.9370   26.0723  -75.4320 N.am      6 UNK        -0.4762 
     43 C         -76.2543   25.5839  -74.3839 C.2       6 UNK         0.5007 
     44 O         -75.1368   25.9689  -74.0445 O.2       6 UNK        -0.5032 
     45 CA        -76.9422   24.4541  -73.5965 C.3       5 UNK         0.0783 
     46 C46       -78.0803   25.0036  -72.6896 C.3       11 UNK        -0.0857 
     47 S47       -77.6657   24.9799  -70.9148 S.3       11 UNK        -0.2512 
     48 C48       -76.4261   26.3144  -70.7630 C.3       11 UNK         0.0225 
     49 N         -77.4296   23.4388  -74.5307 N.am      5 UNK        -0.4615 
     50 C         -76.6795   22.4591  -75.0522 C.2       4 UNK         0.5053 
     51 O         -75.5161   22.2386  -74.7179 O.2       4 UNK        -0.5105 
     52 CA        -77.3294   21.5675  -76.1281 C.3       4 UNK         0.0263 
     53 CB        -77.8172   20.2487  -75.5070 C.3       4 UNK        -0.1981 
     54 N         -78.4463   22.2095  -76.8273 N.am      4 UNK        -0.4224 
     55 C         -78.3267   23.2549  -77.6580 C.2       3 UNK         0.4895 
     56 O         -77.2519   23.7680  -77.9634 O.2       3 UNK        -0.5091 
     57 CA        -79.6345   23.8718  -78.1840 C.3       3 UNK         0.0250 
     58 CB        -80.1068   23.1382  -79.4491 C.3       3 UNK        -0.1996 
     59 N         -80.7176   23.8955  -77.1919 N.am      3 UNK        -0.4254 
     60 C         -80.6483   24.5078  -76.0015 C.2       2 UNK         0.5004 
     61 O         -79.6396   25.0848  -75.5866 O.2       2 UNK        -0.5226 
     62 CA        -81.8846   24.3985  -75.0952 C.3       2 UNK         0.0269 
     63 CB        -81.8280   23.1001  -74.2734 C.3       2 UNK        -0.1926 
     64 N         -81.9730   25.5357  -74.1775 N.am      2 UNK        -0.4687 
     65 C         -82.2706   26.7897  -74.5481 C.2       1 UNK         0.5165 
     66 O         -82.6021   27.0967  -75.6947 O.2       1 UNK        -0.5079 
     67 H67       -82.3226   26.4254  -69.7315 H         1 UNK         0.0900 
     68 H68       -83.9784   26.9710  -69.4590 H         1 UNK         0.0900 
     69 H69       -83.6751   25.3495  -70.0889 H         1 UNK         0.0900 
     70 H70       -81.4328   27.3185  -71.5794 H         1 UNK         0.2959 
     71 H71       -83.0435   28.5480  -73.6410 H         1 UNK         0.1079 
     72 H72       -80.7690   29.0047  -74.7006 H         1 UNK         0.0837 
     73 H73       -80.0127   28.1405  -73.3965 H         1 UNK         0.0837 
     74 H74       -79.9538   30.7894  -70.5727 H         1 UNK         0.0685 
     75 H75       -80.5735   29.1603  -70.6116 H         1 UNK         0.0685 
     76 H76       -78.8716   27.5352  -70.4352 H         1 UNK         0.1434 
     77 H77       -75.0017   28.1328  -72.1684 H         1 UNK         0.1329 
     78 H78       -78.0102   31.1691  -72.5331 H         1 UNK         0.1335 
     79 H79       -74.8931   31.2740  -72.4949 H         1 UNK         0.0680 
     80 H80       -76.0142   31.3472  -73.8376 H         1 UNK         0.0680 
     81 H81       -73.4357   30.8195  -76.2662 H         1 UNK         0.1032 
     82 H82       -74.2505   31.9927  -75.2886 H         1 UNK         0.1032 
     83 H83       -71.8060   32.3731  -75.4835 H         1 UNK         0.0461 
     84 H84       -70.9791   31.3136  -72.3738 H         1 UNK         0.3453 
     85 H85       -71.6305   32.6840  -71.5088 H         1 UNK         0.3453 
     86 H86       -71.5518   29.6510  -74.4859 H         1 UNK         0.2984 
     87 H87       -68.3536   29.4059  -75.6916 H         1 UNK         0.0554 
     88 H88       -67.4709   30.3996  -73.5762 H         1 UNK         0.0847 
     89 H89       -67.3864   28.6489  -73.5336 H         1 UNK         0.0847 
     90 H90       -68.6506   29.4949  -72.6395 H         1 UNK         0.0847 
     91 H91       -69.7120   27.6478  -73.8994 H         1 UNK         0.3141 
     92 H92       -70.4036   25.5227  -75.6344 H         1 UNK         0.0743 
     93 H93       -72.4668   27.0368  -73.9214 H         1 UNK         0.0784 
     94 H94       -72.3280   25.2865  -73.9846 H         1 UNK         0.0784 
     95 H95       -71.0120   26.2336  -73.3290 H         1 UNK         0.0784 
     96 H96       -72.6354   26.9732  -76.8618 H         1 UNK         0.3213 
     97 H97       -73.4528   25.7239  -78.8401 H         1 UNK         0.0855 
     98 H98       -74.4348   22.9556  -77.9640 H         1 UNK         0.0814 
     99 H99       -73.1946   23.2619  -79.1746 H         1 UNK         0.0814 
    100 H100      -74.8484   23.7750  -79.4683 H         1 UNK         0.0814 
    101 H101      -75.7311   24.8952  -77.2488 H         1 UNK         0.3105 
    102 H102      -76.2833   28.0215  -75.6671 H         1 UNK         0.0547 
    103 H103      -77.3598   28.3955  -77.8774 H         1 UNK         0.0837 
    104 H104      -77.8916   26.7205  -77.9264 H         1 UNK         0.0837 
    105 H105      -78.5373   27.8191  -76.7071 H         1 UNK         0.0837 
    106 H106      -77.8689   25.7020  -75.6071 H         1 UNK         0.3020 
    107 H107      -76.1775   23.9908  -72.9683 H         1 UNK         0.1245 
    108 H108      -78.9760   24.3895  -72.7927 H         1 UNK         0.0781 
    109 H109      -78.4050   26.0064  -72.9751 H         1 UNK         0.0781 
    110 H110      -75.5218   26.0042  -71.2887 H         1 UNK         0.0836 
    111 H111      -76.1478   26.4100  -69.7128 H         1 UNK         0.0836 
    112 H112      -78.3549   23.5997  -74.9074 H         1 UNK         0.3022 
    113 H113      -76.5591   21.3354  -76.8669 H         1 UNK         0.0747 
    114 H114      -78.2076   19.5717  -76.2672 H         1 UNK         0.0793 
    115 H115      -77.0008   19.7295  -75.0028 H         1 UNK         0.0793 
    116 H116      -78.6023   20.4155  -74.7683 H         1 UNK         0.0793 
    117 H117      -79.3711   21.8532  -76.6354 H         1 UNK         0.3047 
    118 H118      -79.4191   24.9073  -78.4538 H         1 UNK         0.0822 
    119 H119      -80.9732   23.6291  -79.8928 H         1 UNK         0.0807 
    120 H120      -80.3769   22.1021  -79.2411 H         1 UNK         0.0807 
    121 H121      -79.3223   23.1245  -80.2073 H         1 UNK         0.0807 
    122 H122      -81.5758   23.4300  -77.4518 H         1 UNK         0.2946 
    123 H123      -82.7804   24.3888  -75.7205 H         1 UNK         0.1144 
    124 H124      -82.7046   22.9986  -73.6332 H         1 UNK         0.0793 
    125 H125      -80.9430   23.0598  -73.6371 H         1 UNK         0.0793 
    126 H126      -81.8025   22.2238  -74.9225 H         1 UNK         0.0793 
    127 H127      -81.6996   25.3748  -73.2200 H         1 UNK         0.2896 
@<TRIPOS>BOND
     1    1    2 1    
     2    1   67 1    
     3    1   68 1    
     4    1   69 1    
     5    2    3 2    
     6    2    4 am   BACKBONE|DICT|INTERRES
     7    4    5 1    
     8    4   70 1    
     9    5    6 1    
    10    5   65 1    
    11    5   71 1    
    12    6    7 1    
    13    6   72 1    
    14    6   73 1    
    15    7    8 1    
    16    8    9 1    
    17    8   74 1    
    18    8   75 1    
    19    9   10 ar   
    20    9   14 ar   
    21   10   11 ar   
    22   10   76 1    
    23   11   12 ar   
    24   11   48 1    
    25   12   13 ar   
    26   12   77 1    
    27   13   14 ar   
    28   13   15 1    
    29   14   78 1    
    30   15   16 1    
    31   15   79 1    
    32   15   80 1    
    33   16   17 1    
    34   17   18 1    
    35   17   81 1    
    36   17   82 1    
    37   18   19 1    
    38   18   22 1    
    39   18   83 1    
    40   19   20 am   BACKBONE|DICT|INTERRES
    41   19   21 2    
    42   20   84 1    
    43   20   85 1    
    44   22   23 am   BACKBONE|DICT|INTERRES
    45   22   86 1    
    46   23   24 2    
    47   23   25 1    
    48   25   26 1    
    49   25   27 1    
    50   25   87 1    
    51   26   88 1    
    52   26   89 1    
    53   26   90 1    
    54   27   28 am   BACKBONE|DICT|INTERRES
    55   27   91 1    
    56   28   29 2    
    57   28   30 1    
    58   30   31 1    
    59   30   32 1    
    60   30   92 1    
    61   31   93 1    
    62   31   94 1    
    63   31   95 1    
    64   32   33 am   BACKBONE|DICT|INTERRES
    65   32   96 1    
    66   33   34 2    
    67   33   35 1    
    68   35   36 1    
    69   35   37 1    
    70   35   97 1    
    71   36   98 1    
    72   36   99 1    
    73   36  100 1    
    74   37   38 am   BACKBONE|DICT|INTERRES
    75   37  101 1    
    76   38   39 2    
    77   38   40 1    
    78   40   41 1    
    79   40   42 1    
    80   40  102 1    
    81   41  103 1    
    82   41  104 1    
    83   41  105 1    
    84   42   43 am   BACKBONE|DICT|INTERRES
    85   42  106 1    
    86   43   44 2    
    87   43   45 1    
    88   45   46 1    
    89   45   49 1    
    90   45  107 1    
    91   46   47 1    
    92   46  108 1    
    93   46  109 1    
    94   47   48 1    
    95   48  110 1    
    96   48  111 1    
    97   49   50 am   BACKBONE|DICT|INTERRES
    98   49  112 1    
    99   50   51 2    
   100   50   52 1    
   101   52   53 1    
   102   52   54 1    
   103   52  113 1    
   104   53  114 1    
   105   53  115 1    
   106   53  116 1    
   107   54   55 am   BACKBONE|DICT|INTERRES
   108   54  117 1    
   109   55   56 2    
   110   55   57 1    
   111   57   58 1    
   112   57   59 1    
   113   57  118 1    
   114   58  119 1    
   115   58  120 1    
   116   58  121 1    
   117   59   60 am   BACKBONE|DICT|INTERRES
   118   59  122 1    
   119   60   61 2    
   120   60   62 1    
   121   62   63 1    
   122   62   64 1    
   123   62  123 1    
   124   63  124 1    
   125   63  125 1    
   126   63  126 1    
   127   64   65 am   BACKBONE|DICT|INTERRES
   128   64  127 1    
   129   65   66 2    
@<TRIPOS>SUBSTRUCTURE
     1 UNK         1 GROUP             0       ****    0 ROOT    
