@<TRIPOS>MOLECULE
3R135
127   129    1
SMALL
USER_CHARGES


@<TRIPOS>ATOM
      1 CA        -80.1139   23.5498  -71.8646 C.3       0 UNK        -0.1998 
      2 C         -80.8002   24.5666  -72.7629 C.2       0 UNK         0.4909 
      3 O         -81.6237   24.1882  -73.5958 O.2       0 UNK        -0.5240 
      4 N         -80.4763   25.8549  -72.5919 N.am      1 UNK        -0.4739 
      5 CA        -81.0305   26.9675  -73.3726 C.3       1 UNK         0.0864 
      6 C6        -80.6847   28.3466  -72.7589 C.3       11 UNK        -0.0881 
      7 S7        -81.3780   28.5296  -71.0795 S.3       11 UNK        -0.2682 
      8 C8        -80.3716   29.8908  -70.3897 C.3       11 UNK         0.0289 
      9 C9        -78.8761   29.5914  -70.2968 C.ar      11 UNK        -0.0687 
     10 C10       -78.4059   28.3122  -69.9797 C.ar      11 UNK        -0.0823 
     11 C11       -77.0355   28.0429  -69.9553 C.ar      11 UNK        -0.0830 
     12 C12       -76.1263   29.0819  -70.1742 C.ar      11 UNK        -0.1021 
     13 C13       -76.5773   30.3711  -70.4752 C.ar      11 UNK        -0.0753 
     14 C14       -77.9534   30.6155  -70.5369 C.ar      11 UNK        -0.0933 
     15 C15       -75.5890   31.5056  -70.7372 C.3       11 UNK         0.0166 
     16 S16       -74.2718   31.0708  -71.9244 S.3       11 UNK        -0.2615 
     17 C17       -75.2494   30.5530  -73.3762 C.3       11 UNK        -0.0865 
     18 CA        -74.5000   30.5667  -74.7409 C.3       10 UNK         0.0862 
     19 C         -74.3154   31.9773  -75.3821 C.2       10 UNK         0.5551 
     20 N         -73.4476   32.1281  -76.3748 N.am      10 UNK        -0.7319 
     21 O         -74.9952   32.9336  -75.0168 O.2       10 UNK        -0.5018 
     22 N         -73.3561   29.6295  -74.7863 N.am      10 UNK        -0.4509 
     23 C         -72.0819   29.8788  -74.4476 C.2       10 UNK         0.4899 
     24 O         -71.6619   30.9931  -74.1341 O.2       10 UNK        -0.4839 
     25 CA        -71.0774   28.7120  -74.4341 C.3       9 UNK         0.0222 
     26 CB        -70.4861   28.5346  -73.0188 C.3       9 UNK        -0.1966 
     27 N         -71.5941   27.4198  -74.9100 N.am      9 UNK        -0.4218 
     28 C         -70.8002   26.4426  -75.3746 C.2       9 UNK         0.5020 
     29 O         -69.6031   26.5948  -75.6263 O.2       9 UNK        -0.5274 
     30 CA        -71.4100   25.0386  -75.5166 C.3       8 UNK         0.0270 
     31 CB        -71.7861   24.4658  -74.1390 C.3       8 UNK        -0.1976 
     32 N         -72.5618   24.9766  -76.4152 N.am      8 UNK        -0.4313 
     33 C         -72.4922   25.0648  -77.7506 C.2       8 UNK         0.5041 
     34 O         -71.4455   25.2470  -78.3740 O.2       8 UNK        -0.5577 
     35 CA        -73.8104   24.9047  -78.5302 C.3       7 UNK         0.0284 
     36 CB        -74.1708   23.4194  -78.6967 C.3       7 UNK        -0.1958 
     37 N         -74.9268   25.6113  -77.9029 N.am      7 UNK        -0.4454 
     38 C         -75.0235   26.9448  -77.8252 C.2       7 UNK         0.5089 
     39 O         -74.2319   27.7265  -78.3529 O.2       7 UNK        -0.5125 
     40 CA        -76.1781   27.5048  -76.9800 C.3       6 UNK         0.0408 
     41 CB        -77.4688   27.6030  -77.8035 C.3       6 UNK        -0.1791 
     42 N         -76.4242   26.7484  -75.7479 N.am      6 UNK        -0.4762 
     43 C         -75.5235   26.5497  -74.7735 C.2       6 UNK         0.5007 
     44 O         -74.3862   27.0218  -74.7813 O.2       6 UNK        -0.5032 
     45 CA        -75.9452   25.6368  -73.6097 C.3       5 UNK         0.0783 
     46 C46       -76.8157   26.4199  -72.6070 C.3       11 UNK        -0.0857 
     47 S47       -77.1574   25.4907  -71.0725 S.3       11 UNK        -0.2512 
     48 C48       -76.5364   26.6152  -69.7697 C.3       11 UNK         0.0225 
     49 N         -76.5776   24.4060  -74.0981 N.am      5 UNK        -0.4615 
     50 C         -75.9176   23.4641  -74.7870 C.2       4 UNK         0.5053 
     51 O         -74.7249   23.5441  -75.0769 O.2       4 UNK        -0.5105 
     52 CA        -76.7175   22.2419  -75.2642 C.3       4 UNK         0.0263 
     53 CB        -76.8907   21.2293  -74.1210 C.3       4 UNK        -0.1981 
     54 N         -78.0252   22.5621  -75.8439 N.am      4 UNK        -0.4224 
     55 C         -78.2342   23.3768  -76.8881 C.2       3 UNK         0.4895 
     56 O         -77.3449   24.0287  -77.4373 O.2       3 UNK        -0.5091 
     57 CA        -79.6725   23.5055  -77.4062 C.3       3 UNK         0.0250 
     58 CB        -80.6671   22.4811  -76.8156 C.3       3 UNK        -0.1996 
     59 N         -80.1119   24.8629  -77.1203 N.am      3 UNK        -0.4254 
     60 C         -81.0661   25.5519  -77.7488 C.2       2 UNK         0.5004 
     61 O         -81.7309   25.0992  -78.6828 O.2       2 UNK        -0.5226 
     62 CA        -81.3200   26.9873  -77.2329 C.3       2 UNK         0.0269 
     63 CB        -82.5241   27.6577  -77.9213 C.3       2 UNK        -0.1926 
     64 N         -81.5099   27.0607  -75.7775 N.am      2 UNK        -0.4687 
     65 C         -80.5665   26.8884  -74.8404 C.2       1 UNK         0.5165 
     66 O         -79.3792   26.6602  -75.0976 O.2       1 UNK        -0.5079 
     67 H67       -80.7940   22.7317  -71.6289 H         1 UNK         0.0900 
     68 H68       -79.7954   23.9986  -70.9240 H         1 UNK         0.0900 
     69 H69       -79.2395   23.1344  -72.3628 H         1 UNK         0.0900 
     70 H70       -79.7863   26.1082  -71.8996 H         1 UNK         0.2959 
     71 H71       -82.1173   26.8572  -73.3577 H         1 UNK         0.1079 
     72 H72       -79.6029   28.4892  -72.7304 H         1 UNK         0.0837 
     73 H73       -81.0845   29.1553  -73.3740 H         1 UNK         0.0837 
     74 H74       -80.5433   30.7811  -70.9970 H         1 UNK         0.0685 
     75 H75       -80.7398   30.1228  -69.3897 H         1 UNK         0.0685 
     76 H76       -79.1048   27.5078  -69.7977 H         1 UNK         0.1434 
     77 H77       -75.0637   28.8821  -70.1485 H         1 UNK         0.1329 
     78 H78       -78.3091   31.6087  -70.7751 H         1 UNK         0.1335 
     79 H79       -75.1271   31.7925  -69.7918 H         1 UNK         0.0680 
     80 H80       -76.1070   32.3914  -71.1083 H         1 UNK         0.0680 
     81 H81       -76.1512   31.1655  -73.4337 H         1 UNK         0.1032 
     82 H82       -75.6065   29.5415  -73.1813 H         1 UNK         0.1032 
     83 H83       -75.2107   30.1196  -75.4306 H         1 UNK         0.0461 
     84 H84       -73.3343   33.0341  -76.8010 H         1 UNK         0.3453 
     85 H85       -72.8825   31.3509  -76.6770 H         1 UNK         0.3453 
     86 H86       -73.6165   28.6748  -75.0101 H         1 UNK         0.2984 
     87 H87       -70.2719   29.0248  -75.1019 H         1 UNK         0.0554 
     88 H88       -69.6717   27.8103  -73.0098 H         1 UNK         0.0847 
     89 H89       -71.2437   28.1965  -72.3108 H         1 UNK         0.0847 
     90 H90       -70.0789   29.4717  -72.6367 H         1 UNK         0.0847 
     91 H91       -72.5808   27.2174  -74.7592 H         1 UNK         0.3141 
     92 H92       -70.6350   24.3913  -75.9333 H         1 UNK         0.0743 
     93 H93       -70.9397   24.5092  -73.4522 H         1 UNK         0.0784 
     94 H94       -72.6081   25.0150  -73.6796 H         1 UNK         0.0784 
     95 H95       -72.0860   23.4204  -74.2151 H         1 UNK         0.0784 
     96 H96       -73.4578   24.7586  -75.9886 H         1 UNK         0.3213 
     97 H97       -73.6608   25.3301  -79.5251 H         1 UNK         0.0855 
     98 H98       -73.3641   22.8752  -79.1896 H         1 UNK         0.0814 
     99 H99       -75.0665   23.2954  -79.3057 H         1 UNK         0.0814 
    100 H100      -74.3521   22.9360  -77.7364 H         1 UNK         0.0814 
    101 H101      -75.6698   25.0463  -77.4989 H         1 UNK         0.3105 
    102 H102      -75.9005   28.5169  -76.6950 H         1 UNK         0.0547 
    103 H103      -77.2980   28.1391  -78.7380 H         1 UNK         0.0837 
    104 H104      -77.8659   26.6204  -78.0582 H         1 UNK         0.0837 
    105 H105      -78.2326   28.1511  -77.2538 H         1 UNK         0.0837 
    106 H106      -77.3550   26.3653  -75.6300 H         1 UNK         0.3020 
    107 H107      -75.0280   25.3475  -73.0913 H         1 UNK         0.1245 
    108 H108      -77.7670   26.7058  -73.0543 H         1 UNK         0.0781 
    109 H109      -76.3142   27.3544  -72.3573 H         1 UNK         0.0781 
    110 H110      -75.4458   26.5819  -69.7711 H         1 UNK         0.0836 
    111 H111      -76.8553   26.2444  -68.7948 H         1 UNK         0.0836 
    112 H112      -77.5597   24.2861  -73.9053 H         1 UNK         0.3022 
    113 H113      -76.1303   21.7629  -76.0506 H         1 UNK         0.0747 
    114 H114      -77.3550   20.3078  -74.4729 H         1 UNK         0.0793 
    115 H115      -75.9249   20.9581  -73.6917 H         1 UNK         0.0793 
    116 H116      -77.5044   21.6280  -73.3128 H         1 UNK         0.0793 
    117 H117      -78.8214   22.0760  -75.4579 H         1 UNK         0.3047 
    118 H118      -79.6305   23.3678  -78.4887 H         1 UNK         0.0822 
    119 H119      -81.6469   22.5753  -77.2843 H         1 UNK         0.0807 
    120 H120      -80.8084   22.6164  -75.7426 H         1 UNK         0.0807 
    121 H121      -80.3334   21.4570  -76.9889 H         1 UNK         0.0807 
    122 H122      -79.6199   25.3404  -76.3690 H         1 UNK         0.2946 
    123 H123      -80.4354   27.5706  -77.4898 H         1 UNK         0.1144 
    124 H124      -82.6485   28.6889  -77.5899 H         1 UNK         0.0793 
    125 H125      -83.4534   27.1241  -77.7178 H         1 UNK         0.0793 
    126 H126      -82.3928   27.6838  -79.0040 H         1 UNK         0.0793 
    127 H127      -82.4613   27.2086  -75.4723 H         1 UNK         0.2896 
@<TRIPOS>BOND
     1    1    2 1    
     2    1   67 1    
     3    1   68 1    
     4    1   69 1    
     5    2    3 2    
     6    2    4 am   BACKBONE|DICT|INTERRES
     7    4    5 1    
     8    4   70 1    
     9    5    6 1    
    10    5   65 1    
    11    5   71 1    
    12    6    7 1    
    13    6   72 1    
    14    6   73 1    
    15    7    8 1    
    16    8    9 1    
    17    8   74 1    
    18    8   75 1    
    19    9   10 ar   
    20    9   14 ar   
    21   10   11 ar   
    22   10   76 1    
    23   11   12 ar   
    24   11   48 1    
    25   12   13 ar   
    26   12   77 1    
    27   13   14 ar   
    28   13   15 1    
    29   14   78 1    
    30   15   16 1    
    31   15   79 1    
    32   15   80 1    
    33   16   17 1    
    34   17   18 1    
    35   17   81 1    
    36   17   82 1    
    37   18   19 1    
    38   18   22 1    
    39   18   83 1    
    40   19   20 am   BACKBONE|DICT|INTERRES
    41   19   21 2    
    42   20   84 1    
    43   20   85 1    
    44   22   23 am   BACKBONE|DICT|INTERRES
    45   22   86 1    
    46   23   24 2    
    47   23   25 1    
    48   25   26 1    
    49   25   27 1    
    50   25   87 1    
    51   26   88 1    
    52   26   89 1    
    53   26   90 1    
    54   27   28 am   BACKBONE|DICT|INTERRES
    55   27   91 1    
    56   28   29 2    
    57   28   30 1    
    58   30   31 1    
    59   30   32 1    
    60   30   92 1    
    61   31   93 1    
    62   31   94 1    
    63   31   95 1    
    64   32   33 am   BACKBONE|DICT|INTERRES
    65   32   96 1    
    66   33   34 2    
    67   33   35 1    
    68   35   36 1    
    69   35   37 1    
    70   35   97 1    
    71   36   98 1    
    72   36   99 1    
    73   36  100 1    
    74   37   38 am   BACKBONE|DICT|INTERRES
    75   37  101 1    
    76   38   39 2    
    77   38   40 1    
    78   40   41 1    
    79   40   42 1    
    80   40  102 1    
    81   41  103 1    
    82   41  104 1    
    83   41  105 1    
    84   42   43 am   BACKBONE|DICT|INTERRES
    85   42  106 1    
    86   43   44 2    
    87   43   45 1    
    88   45   46 1    
    89   45   49 1    
    90   45  107 1    
    91   46   47 1    
    92   46  108 1    
    93   46  109 1    
    94   47   48 1    
    95   48  110 1    
    96   48  111 1    
    97   49   50 am   BACKBONE|DICT|INTERRES
    98   49  112 1    
    99   50   51 2    
   100   50   52 1    
   101   52   53 1    
   102   52   54 1    
   103   52  113 1    
   104   53  114 1    
   105   53  115 1    
   106   53  116 1    
   107   54   55 am   BACKBONE|DICT|INTERRES
   108   54  117 1    
   109   55   56 2    
   110   55   57 1    
   111   57   58 1    
   112   57   59 1    
   113   57  118 1    
   114   58  119 1    
   115   58  120 1    
   116   58  121 1    
   117   59   60 am   BACKBONE|DICT|INTERRES
   118   59  122 1    
   119   60   61 2    
   120   60   62 1    
   121   62   63 1    
   122   62   64 1    
   123   62  123 1    
   124   63  124 1    
   125   63  125 1    
   126   63  126 1    
   127   64   65 am   BACKBONE|DICT|INTERRES
   128   64  127 1    
   129   65   66 2    
@<TRIPOS>SUBSTRUCTURE
     1 UNK         1 GROUP             0       ****    0 ROOT    
