@<TRIPOS>MOLECULE
3R135
127   129    1
SMALL
USER_CHARGES


@<TRIPOS>ATOM
      1 CA        -85.1844   25.7796  -71.1692 C.3       0 UNK        -0.1998 
      2 C         -84.5825   26.5867  -72.3097 C.2       0 UNK         0.4909 
      3 O         -85.2939   26.9407  -73.2504 O.2       0 UNK        -0.5240 
      4 N         -83.2778   26.8828  -72.2311 N.am      1 UNK        -0.4739 
      5 CA        -82.5228   27.6235  -73.2522 C.3       1 UNK         0.0864 
      6 C6        -81.1617   28.1091  -72.6934 C.3       11 UNK        -0.0881 
      7 S7        -80.5972   29.6660  -73.4560 S.3       11 UNK        -0.2682 
      8 C8        -79.5046   30.3228  -72.1542 C.3       11 UNK         0.0289 
      9 C9        -78.1435   29.6410  -72.1633 C.ar      11 UNK        -0.0687 
     10 C10       -77.9583   28.4168  -71.5118 C.ar      11 UNK        -0.0823 
     11 C11       -76.7140   27.7762  -71.5374 C.ar      11 UNK        -0.0830 
     12 C12       -75.6426   28.4000  -72.1835 C.ar      11 UNK        -0.1021 
     13 C13       -75.8035   29.6387  -72.8086 C.ar      11 UNK        -0.0753 
     14 C14       -77.0615   30.2473  -72.8091 C.ar      11 UNK        -0.0933 
     15 C15       -74.6100   30.3328  -73.4481 C.3       11 UNK         0.0166 
     16 S16       -73.5473   31.0580  -72.1603 S.3       11 UNK        -0.2615 
     17 C17       -72.5349   32.2547  -73.1003 C.3       11 UNK        -0.0865 
     18 CA        -71.1054   31.7617  -73.4665 C.3       10 UNK         0.0862 
     19 C         -70.2289   31.4028  -72.2366 C.2       10 UNK         0.5551 
     20 N         -69.8978   32.3823  -71.4061 N.am      10 UNK        -0.7319 
     21 O         -69.8479   30.2529  -72.0240 O.2       10 UNK        -0.5018 
     22 N         -71.1194   30.6800  -74.4559 N.am      10 UNK        -0.4509 
     23 C         -71.3773   30.8307  -75.7576 C.2       10 UNK         0.4899 
     24 O         -71.6608   31.9147  -76.2689 O.2       10 UNK        -0.4839 
     25 CA        -71.3362   29.5860  -76.6616 C.3       9 UNK         0.0222 
     26 CB        -70.0200   29.5212  -77.4614 C.3       9 UNK        -0.1966 
     27 N         -71.6302   28.3081  -75.9981 N.am      9 UNK        -0.4218 
     28 C         -70.8866   27.6138  -75.1214 C.2       9 UNK         0.5020 
     29 O         -69.8167   28.0179  -74.6667 O.2       9 UNK        -0.5274 
     30 CA        -71.4225   26.2457  -74.6481 C.3       8 UNK         0.0270 
     31 CB        -71.9466   26.3545  -73.2076 C.3       8 UNK        -0.1976 
     32 N         -72.4778   25.6942  -75.5050 N.am      8 UNK        -0.4313 
     33 C         -72.2958   25.2855  -76.7713 C.2       8 UNK         0.5041 
     34 O         -71.1861   25.1904  -77.2974 O.2       8 UNK        -0.5577 
     35 CA        -73.5453   24.9644  -77.6183 C.3       7 UNK         0.0284 
     36 CB        -73.7216   23.4422  -77.7461 C.3       7 UNK        -0.1958 
     37 N         -74.7976   25.5509  -77.1274 N.am      7 UNK        -0.4454 
     38 C         -75.0295   26.8467  -76.8706 C.2       7 UNK         0.5089 
     39 O         -74.2245   27.7460  -77.1115 O.2       7 UNK        -0.5125 
     40 CA        -76.3449   27.1949  -76.1506 C.3       6 UNK         0.0408 
     41 CB        -77.4106   27.6448  -77.1592 C.3       6 UNK        -0.1791 
     42 N         -76.8862   26.1153  -75.3166 N.am      6 UNK        -0.4762 
     43 C         -76.2481   25.5143  -74.2979 C.2       6 UNK         0.5007 
     44 O         -75.0747   25.7321  -73.9928 O.2       6 UNK        -0.5032 
     45 CA        -77.0584   24.4567  -73.5284 C.3       5 UNK         0.0783 
     46 C46       -78.2112   25.1052  -72.7113 C.3       11 UNK        -0.0857 
     47 S47       -77.8742   25.2560  -70.9259 S.3       11 UNK        -0.2512 
     48 C48       -76.4792   26.4350  -70.8438 C.3       11 UNK         0.0225 
     49 N         -77.5572   23.4661  -74.4817 N.am      5 UNK        -0.4615 
     50 C         -76.8325   22.4554  -74.9798 C.2       4 UNK         0.5053 
     51 O         -75.7016   22.1680  -74.5887 O.2       4 UNK        -0.5105 
     52 CA        -77.4645   21.6280  -76.1155 C.3       4 UNK         0.0263 
     53 CB        -78.1124   20.3529  -75.5526 C.3       4 UNK        -0.1981 
     54 N         -78.4595   22.3684  -76.8972 N.am      4 UNK        -0.4224 
     55 C         -78.1905   23.4298  -77.6716 C.2       3 UNK         0.4895 
     56 O         -77.0585   23.8720  -77.8579 O.2       3 UNK        -0.5091 
     57 CA        -79.3943   24.1561  -78.2971 C.3       3 UNK         0.0250 
     58 CB        -79.7422   23.5414  -79.6619 C.3       3 UNK        -0.1996 
     59 N         -80.5890   24.1693  -77.4443 N.am      3 UNK        -0.4254 
     60 C         -80.6496   24.6783  -76.2052 C.2       2 UNK         0.5004 
     61 O         -79.6849   25.1783  -75.6188 O.2       2 UNK        -0.5226 
     62 CA        -81.9950   24.5163  -75.4792 C.3       2 UNK         0.0269 
     63 CB        -82.1104   23.0985  -74.8938 C.3       2 UNK        -0.1926 
     64 N         -82.1719   25.4811  -74.3937 N.am      2 UNK        -0.4687 
     65 C         -82.3424   26.8023  -74.5490 C.2       1 UNK         0.5165 
     66 O         -82.3990   27.3615  -75.6457 O.2       1 UNK        -0.5079 
     67 H67       -84.4470   25.5427  -70.4025 H         1 UNK         0.0900 
     68 H68       -85.9931   26.3390  -70.6998 H         1 UNK         0.0900 
     69 H69       -85.5928   24.8429  -71.5477 H         1 UNK         0.0900 
     70 H70       -82.7500   26.5718  -71.4277 H         1 UNK         0.2959 
     71 H71       -83.1239   28.4988  -73.5105 H         1 UNK         0.1079 
     72 H72       -80.3881   27.3487  -72.8028 H         1 UNK         0.0837 
     73 H73       -81.2503   28.2896  -71.6210 H         1 UNK         0.0837 
     74 H74       -79.3841   31.3953  -72.3140 H         1 UNK         0.0685 
     75 H75       -79.9753   30.2182  -71.1756 H         1 UNK         0.0685 
     76 H76       -78.7875   27.9582  -70.9923 H         1 UNK         0.1434 
     77 H77       -74.6700   27.9295  -72.1846 H         1 UNK         0.1329 
     78 H78       -77.1948   31.2035  -73.2963 H         1 UNK         0.1335 
     79 H79       -74.9482   31.1108  -74.1340 H         1 UNK         0.0680 
     80 H80       -74.0335   29.6205  -74.0408 H         1 UNK         0.0680 
     81 H81       -73.0701   32.5583  -74.0006 H         1 UNK         0.1032 
     82 H82       -72.4647   33.1633  -72.5004 H         1 UNK         0.1032 
     83 H83       -70.5864   32.5973  -73.9410 H         1 UNK         0.0461 
     84 H84       -70.1983   33.3308  -71.5679 H         1 UNK         0.3453 
     85 H85       -69.3316   32.1683  -70.6000 H         1 UNK         0.3453 
     86 H86       -70.7977   29.7793  -74.1158 H         1 UNK         0.2984 
     87 H87       -72.1436   29.7152  -77.3840 H         1 UNK         0.0554 
     88 H88       -69.8827   30.4248  -78.0566 H         1 UNK         0.0847 
     89 H89       -70.0153   28.6760  -78.1497 H         1 UNK         0.0847 
     90 H90       -69.1499   29.4300  -76.8108 H         1 UNK         0.0847 
     91 H91       -72.5223   27.9058  -76.2780 H         1 UNK         0.3141 
     92 H92       -70.5840   25.5463  -74.6565 H         1 UNK         0.0743 
     93 H93       -72.7663   27.0689  -73.1366 H         1 UNK         0.0784 
     94 H94       -72.3050   25.3933  -72.8385 H         1 UNK         0.0784 
     95 H95       -71.1616   26.6920  -72.5294 H         1 UNK         0.0784 
     96 H96       -73.4217   25.7113  -75.1264 H         1 UNK         0.3213 
     97 H97       -73.3678   25.3752  -78.6141 H         1 UNK         0.0855 
     98 H98       -73.9736   22.9852  -76.7882 H         1 UNK         0.0814 
     99 H99       -72.8064   22.9686  -78.1042 H         1 UNK         0.0814 
    100 H100      -74.5100   23.1915  -78.4558 H         1 UNK         0.0814 
    101 H101      -75.5680   24.9047  -76.9863 H         1 UNK         0.3105 
    102 H102      -76.1359   28.0329  -75.4825 H         1 UNK         0.0547 
    103 H103      -77.0735   28.5207  -77.7149 H         1 UNK         0.0837 
    104 H104      -77.6265   26.8632  -77.8865 H         1 UNK         0.0837 
    105 H105      -78.3436   27.9137  -76.6629 H         1 UNK         0.0837 
    106 H106      -77.8513   25.8482  -75.4944 H         1 UNK         0.3020 
    107 H107      -76.3747   23.9510  -72.8423 H         1 UNK         0.1245 
    108 H108      -79.1136   24.4964  -72.7889 H         1 UNK         0.0781 
    109 H109      -78.5045   26.0794  -73.1046 H         1 UNK         0.0781 
    110 H110      -75.5946   25.9460  -71.2545 H         1 UNK         0.0836 
    111 H111      -76.2555   26.6285  -69.7941 H         1 UNK         0.0836 
    112 H112      -78.4531   23.6793  -74.9028 H         1 UNK         0.3022 
    113 H113      -76.6586   21.3352  -76.7922 H         1 UNK         0.0747 
    114 H114      -78.4918   19.7141  -76.3505 H         1 UNK         0.0793 
    115 H115      -77.3884   19.7648  -74.9866 H         1 UNK         0.0793 
    116 H116      -78.9411   20.5826  -74.8814 H         1 UNK         0.0793 
    117 H117      -79.4206   22.0727  -76.8094 H         1 UNK         0.3047 
    118 H118      -79.1022   25.1942  -78.4596 H         1 UNK         0.0822 
    119 H119      -80.5261   24.1080  -80.1650 H         1 UNK         0.0807 
    120 H120      -80.0806   22.5087  -79.5677 H         1 UNK         0.0807 
    121 H121      -78.8731   23.5405  -80.3217 H         1 UNK         0.0807 
    122 H122      -81.4241   23.7623  -77.8413 H         1 UNK         0.2946 
    123 H123      -82.7988   24.6723  -76.2025 H         1 UNK         0.1144 
    124 H124      -83.0699   22.9518  -74.3971 H         1 UNK         0.0793 
    125 H125      -81.3225   22.8962  -74.1665 H         1 UNK         0.0793 
    126 H126      -82.0366   22.3397  -75.6739 H         1 UNK         0.0793 
    127 H127      -82.1382   25.1159  -73.4539 H         1 UNK         0.2896 
@<TRIPOS>BOND
     1    1    2 1    
     2    1   67 1    
     3    1   68 1    
     4    1   69 1    
     5    2    3 2    
     6    2    4 am   BACKBONE|DICT|INTERRES
     7    4    5 1    
     8    4   70 1    
     9    5    6 1    
    10    5   65 1    
    11    5   71 1    
    12    6    7 1    
    13    6   72 1    
    14    6   73 1    
    15    7    8 1    
    16    8    9 1    
    17    8   74 1    
    18    8   75 1    
    19    9   10 ar   
    20    9   14 ar   
    21   10   11 ar   
    22   10   76 1    
    23   11   12 ar   
    24   11   48 1    
    25   12   13 ar   
    26   12   77 1    
    27   13   14 ar   
    28   13   15 1    
    29   14   78 1    
    30   15   16 1    
    31   15   79 1    
    32   15   80 1    
    33   16   17 1    
    34   17   18 1    
    35   17   81 1    
    36   17   82 1    
    37   18   19 1    
    38   18   22 1    
    39   18   83 1    
    40   19   20 am   BACKBONE|DICT|INTERRES
    41   19   21 2    
    42   20   84 1    
    43   20   85 1    
    44   22   23 am   BACKBONE|DICT|INTERRES
    45   22   86 1    
    46   23   24 2    
    47   23   25 1    
    48   25   26 1    
    49   25   27 1    
    50   25   87 1    
    51   26   88 1    
    52   26   89 1    
    53   26   90 1    
    54   27   28 am   BACKBONE|DICT|INTERRES
    55   27   91 1    
    56   28   29 2    
    57   28   30 1    
    58   30   31 1    
    59   30   32 1    
    60   30   92 1    
    61   31   93 1    
    62   31   94 1    
    63   31   95 1    
    64   32   33 am   BACKBONE|DICT|INTERRES
    65   32   96 1    
    66   33   34 2    
    67   33   35 1    
    68   35   36 1    
    69   35   37 1    
    70   35   97 1    
    71   36   98 1    
    72   36   99 1    
    73   36  100 1    
    74   37   38 am   BACKBONE|DICT|INTERRES
    75   37  101 1    
    76   38   39 2    
    77   38   40 1    
    78   40   41 1    
    79   40   42 1    
    80   40  102 1    
    81   41  103 1    
    82   41  104 1    
    83   41  105 1    
    84   42   43 am   BACKBONE|DICT|INTERRES
    85   42  106 1    
    86   43   44 2    
    87   43   45 1    
    88   45   46 1    
    89   45   49 1    
    90   45  107 1    
    91   46   47 1    
    92   46  108 1    
    93   46  109 1    
    94   47   48 1    
    95   48  110 1    
    96   48  111 1    
    97   49   50 am   BACKBONE|DICT|INTERRES
    98   49  112 1    
    99   50   51 2    
   100   50   52 1    
   101   52   53 1    
   102   52   54 1    
   103   52  113 1    
   104   53  114 1    
   105   53  115 1    
   106   53  116 1    
   107   54   55 am   BACKBONE|DICT|INTERRES
   108   54  117 1    
   109   55   56 2    
   110   55   57 1    
   111   57   58 1    
   112   57   59 1    
   113   57  118 1    
   114   58  119 1    
   115   58  120 1    
   116   58  121 1    
   117   59   60 am   BACKBONE|DICT|INTERRES
   118   59  122 1    
   119   60   61 2    
   120   60   62 1    
   121   62   63 1    
   122   62   64 1    
   123   62  123 1    
   124   63  124 1    
   125   63  125 1    
   126   63  126 1    
   127   64   65 am   BACKBONE|DICT|INTERRES
   128   64  127 1    
   129   65   66 2    
@<TRIPOS>SUBSTRUCTURE
     1 UNK         1 GROUP             0       ****    0 ROOT    
