@<TRIPOS>MOLECULE
3R135
127   129    1
SMALL
USER_CHARGES


@<TRIPOS>ATOM
      1 CA        -82.6604   22.9672  -74.4658 C.3       0 UNK        -0.1998 
      2 C         -83.0891   24.4148  -74.6477 C.2       0 UNK         0.4909 
      3 O         -84.0589   24.6871  -75.3554 O.2       0 UNK        -0.5240 
      4 N         -82.3592   25.3550  -74.0368 N.am      1 UNK        -0.4739 
      5 CA        -82.5955   26.8059  -74.0702 C.3       1 UNK         0.0864 
      6 C6        -82.0683   27.4843  -72.7766 C.3       11 UNK        -0.0881 
      7 S7        -80.3258   27.0861  -72.3892 S.3       11 UNK        -0.2682 
      8 C8        -79.7152   28.7017  -71.8163 C.3       11 UNK         0.0289 
      9 C9        -78.2101   28.6660  -71.6045 C.ar      11 UNK        -0.0687 
     10 C10       -77.6610   27.8540  -70.6090 C.ar      11 UNK        -0.0823 
     11 C11       -76.2751   27.7508  -70.4597 C.ar      11 UNK        -0.0830 
     12 C12       -75.4361   28.5015  -71.2885 C.ar      11 UNK        -0.1021 
     13 C13       -75.9754   29.3353  -72.2730 C.ar      11 UNK        -0.0753 
     14 C14       -77.3630   29.4158  -72.4240 C.ar      11 UNK        -0.0933 
     15 C15       -75.0670   30.0931  -73.2267 C.3       11 UNK         0.0166 
     16 S16       -74.4280   31.6331  -72.4953 S.3       11 UNK        -0.2615 
     17 C17       -72.7593   31.1273  -71.9476 C.3       11 UNK        -0.0865 
     18 CA        -71.6719   31.4171  -73.0184 C.3       10 UNK         0.0862 
     19 C         -70.2403   31.1703  -72.4561 C.2       10 UNK         0.5551 
     20 N         -69.4273   30.2946  -73.0371 N.am      10 UNK        -0.7319 
     21 O         -69.8560   31.7963  -71.4714 O.2       10 UNK        -0.5018 
     22 N         -71.9555   30.6963  -74.2670 N.am      10 UNK        -0.4509 
     23 C         -71.5612   31.0578  -75.4920 C.2       10 UNK         0.4899 
     24 O         -70.9544   32.1011  -75.7388 O.2       10 UNK        -0.4839 
     25 CA        -71.9106   30.0719  -76.6279 C.3       9 UNK         0.0222 
     26 CB        -70.9754   30.2168  -77.8468 C.3       9 UNK        -0.1966 
     27 N         -71.9774   28.6674  -76.1915 N.am      9 UNK        -0.4218 
     28 C         -70.9924   27.9508  -75.6200 C.2       9 UNK         0.5020 
     29 O         -69.8826   28.4138  -75.3518 O.2       9 UNK        -0.5274 
     30 CA        -71.2908   26.4890  -75.2327 C.3       8 UNK         0.0270 
     31 CB        -71.3300   26.3445  -73.7017 C.3       8 UNK        -0.1976 
     32 N         -72.5403   25.9729  -75.7998 N.am      8 UNK        -0.4313 
     33 C         -72.7129   25.6589  -77.0941 C.2       8 UNK         0.5041 
     34 O         -71.8040   25.6944  -77.9244 O.2       8 UNK        -0.5577 
     35 CA        -74.1278   25.2649  -77.5630 C.3       7 UNK         0.0284 
     36 CB        -74.1926   23.7628  -77.8826 C.3       7 UNK        -0.1958 
     37 N         -75.1887   25.6106  -76.6114 N.am      7 UNK        -0.4454 
     38 C         -75.5527   26.8651  -76.3000 C.2       7 UNK         0.5089 
     39 O         -75.0390   27.8645  -76.8050 O.2       7 UNK        -0.5125 
     40 CA        -76.6169   27.0465  -75.2008 C.3       6 UNK         0.0408 
     41 CB        -77.9973   27.2942  -75.8215 C.3       6 UNK        -0.1791 
     42 N         -76.6972   25.9367  -74.2439 N.am      6 UNK        -0.4762 
     43 C         -75.6803   25.5258  -73.4670 C.2       6 UNK         0.5007 
     44 O         -74.5646   26.0472  -73.4933 O.2       6 UNK        -0.5032 
     45 CA        -75.9032   24.2626  -72.6003 C.3       5 UNK         0.0783 
     46 C46       -76.2889   24.5915  -71.1359 C.3       11 UNK        -0.0857 
     47 S47       -74.9171   25.3308  -70.1788 S.3       11 UNK        -0.2512 
     48 C48       -75.6893   26.8020  -69.4236 C.3       11 UNK         0.0225 
     49 N         -76.8593   23.3192  -73.1955 N.am      5 UNK        -0.4615 
     50 C         -76.7300   22.7432  -74.3982 C.2       4 UNK         0.5053 
     51 O         -75.7765   22.9461  -75.1495 O.2       4 UNK        -0.5105 
     52 CA        -77.8599   21.8163  -74.8783 C.3       4 UNK         0.0263 
     53 CB        -78.8921   21.4418  -73.7884 C.3       4 UNK        -0.1981 
     54 N         -78.5146   22.3831  -76.0630 N.am      4 UNK        -0.4224 
     55 C         -79.1958   23.5360  -76.1275 C.2       3 UNK         0.4895 
     56 O         -79.4120   24.2635  -75.1530 O.2       3 UNK        -0.5091 
     57 CA        -79.7191   23.9473  -77.5134 C.3       3 UNK         0.0250 
     58 CB        -80.4674   22.8045  -78.2307 C.3       3 UNK        -0.1996 
     59 N         -80.6112   25.0893  -77.3488 N.am      3 UNK        -0.4254 
     60 C         -80.9020   26.0257  -78.2594 C.2       2 UNK         0.5004 
     61 O         -80.4191   26.0450  -79.3922 O.2       2 UNK        -0.5226 
     62 CA        -81.9166   27.1132  -77.8490 C.3       2 UNK         0.0269 
     63 CB        -83.0810   27.1843  -78.8526 C.3       2 UNK        -0.1926 
     64 N         -82.4669   26.8581  -76.5143 N.am      2 UNK        -0.4687 
     65 C         -82.0616   27.4379  -75.3786 C.2       1 UNK         0.5165 
     66 O         -81.2868   28.3947  -75.3490 O.2       1 UNK        -0.5079 
     67 H67       -81.7676   22.8845  -73.8469 H         1 UNK         0.0900 
     68 H68       -82.4454   22.5133  -75.4322 H         1 UNK         0.0900 
     69 H69       -83.4576   22.3967  -73.9903 H         1 UNK         0.0900 
     70 H70       -81.5325   25.0831  -73.5203 H         1 UNK         0.2959 
     71 H71       -83.6754   26.9706  -74.0893 H         1 UNK         0.1079 
     72 H72       -82.6721   27.1578  -71.9287 H         1 UNK         0.0837 
     73 H73       -82.2067   28.5658  -72.8295 H         1 UNK         0.0837 
     74 H74       -80.2120   28.9705  -70.8831 H         1 UNK         0.0685 
     75 H75       -79.9806   29.4662  -72.5485 H         1 UNK         0.0685 
     76 H76       -78.3179   27.2680  -69.9806 H         1 UNK         0.1434 
     77 H77       -74.3643   28.4059  -71.1882 H         1 UNK         0.1329 
     78 H78       -77.7825   30.0391  -73.2018 H         1 UNK         0.1335 
     79 H79       -74.2532   29.4403  -73.5423 H         1 UNK         0.0680 
     80 H80       -75.6097   30.3487  -74.1382 H         1 UNK         0.0680 
     81 H81       -72.5429   31.6783  -71.0303 H         1 UNK         0.1032 
     82 H82       -72.7581   30.0732  -71.6674 H         1 UNK         0.1032 
     83 H83       -71.7152   32.4852  -73.2406 H         1 UNK         0.0461 
     84 H84       -68.5048   30.1573  -72.6565 H         1 UNK         0.3453 
     85 H85       -69.7114   29.7739  -73.8597 H         1 UNK         0.3453 
     86 H86       -72.4246   29.8105  -74.1678 H         1 UNK         0.2984 
     87 H87       -72.9187   30.3331  -76.9529 H         1 UNK         0.0554 
     88 H88       -71.2497   29.5233  -78.6418 H         1 UNK         0.0847 
     89 H89       -69.9344   30.0286  -77.5821 H         1 UNK         0.0847 
     90 H90       -71.0275   31.2229  -78.2648 H         1 UNK         0.0847 
     91 H91       -72.8653   28.2064  -76.3566 H         1 UNK         0.3141 
     92 H92       -70.4677   25.8788  -75.6103 H         1 UNK         0.0743 
     93 H93       -70.3725   26.6223  -73.2587 H         1 UNK         0.0784 
     94 H94       -72.0906   26.9848  -73.2534 H         1 UNK         0.0784 
     95 H95       -71.5384   25.3171  -73.4024 H         1 UNK         0.0784 
     96 H96       -73.3325   25.9153  -75.1665 H         1 UNK         0.3213 
     97 H97       -74.3236   25.8148  -78.4862 H         1 UNK         0.0855 
     98 H98       -73.4941   23.5051  -78.6798 H         1 UNK         0.0814 
     99 H99       -75.1874   23.4657  -78.2149 H         1 UNK         0.0814 
    100 H100      -73.9305   23.1547  -77.0162 H         1 UNK         0.0814 
    101 H101      -75.6086   24.8388  -76.1039 H         1 UNK         0.3105 
    102 H102      -76.3400   27.9359  -74.6377 H         1 UNK         0.0547 
    103 H103      -78.3088   26.4616  -76.4499 H         1 UNK         0.0837 
    104 H104      -78.7564   27.4418  -75.0537 H         1 UNK         0.0837 
    105 H105      -77.9908   28.1882  -76.4461 H         1 UNK         0.0837 
    106 H106      -77.5764   25.4354  -74.2004 H         1 UNK         0.3020 
    107 H107      -74.9430   23.7418  -72.5798 H         1 UNK         0.1245 
    108 H108      -76.5659   23.6740  -70.6143 H         1 UNK         0.0781 
    109 H109      -77.1775   25.2216  -71.1063 H         1 UNK         0.0781 
    110 H110      -74.9390   27.3317  -68.8349 H         1 UNK         0.0836 
    111 H111      -76.4554   26.4774  -68.7176 H         1 UNK         0.0836 
    112 H112      -77.6924   23.1230  -72.6607 H         1 UNK         0.3022 
    113 H113      -77.3771   20.8932  -75.2029 H         1 UNK         0.0747 
    114 H114      -79.6436   20.7582  -74.1837 H         1 UNK         0.0793 
    115 H115      -78.4106   20.9344  -72.9513 H         1 UNK         0.0793 
    116 H116      -79.4183   22.3092  -73.3901 H         1 UNK         0.0793 
    117 H117      -78.3629   21.8727  -76.9216 H         1 UNK         0.3047 
    118 H118      -78.8579   24.2525  -78.1116 H         1 UNK         0.0822 
    119 H119      -79.8080   21.9640  -78.4482 H         1 UNK         0.0807 
    120 H120      -80.8752   23.1368  -79.1857 H         1 UNK         0.0807 
    121 H121      -81.2964   22.4271  -77.6315 H         1 UNK         0.0807 
    122 H122      -80.9650   25.2030  -76.4077 H         1 UNK         0.2946 
    123 H123      -81.3875   28.0688  -77.8642 H         1 UNK         0.1144 
    124 H124      -82.7218   27.4148  -79.8565 H         1 UNK         0.0793 
    125 H125      -83.7919   27.9641  -78.5789 H         1 UNK         0.0793 
    126 H126      -83.6237   26.2398  -78.9082 H         1 UNK         0.0793 
    127 H127      -83.1182   26.0823  -76.4301 H         1 UNK         0.2896 
@<TRIPOS>BOND
     1    1    2 1    
     2    1   67 1    
     3    1   68 1    
     4    1   69 1    
     5    2    3 2    
     6    2    4 am   BACKBONE|DICT|INTERRES
     7    4    5 1    
     8    4   70 1    
     9    5    6 1    
    10    5   65 1    
    11    5   71 1    
    12    6    7 1    
    13    6   72 1    
    14    6   73 1    
    15    7    8 1    
    16    8    9 1    
    17    8   74 1    
    18    8   75 1    
    19    9   10 ar   
    20    9   14 ar   
    21   10   11 ar   
    22   10   76 1    
    23   11   12 ar   
    24   11   48 1    
    25   12   13 ar   
    26   12   77 1    
    27   13   14 ar   
    28   13   15 1    
    29   14   78 1    
    30   15   16 1    
    31   15   79 1    
    32   15   80 1    
    33   16   17 1    
    34   17   18 1    
    35   17   81 1    
    36   17   82 1    
    37   18   19 1    
    38   18   22 1    
    39   18   83 1    
    40   19   20 am   BACKBONE|DICT|INTERRES
    41   19   21 2    
    42   20   84 1    
    43   20   85 1    
    44   22   23 am   BACKBONE|DICT|INTERRES
    45   22   86 1    
    46   23   24 2    
    47   23   25 1    
    48   25   26 1    
    49   25   27 1    
    50   25   87 1    
    51   26   88 1    
    52   26   89 1    
    53   26   90 1    
    54   27   28 am   BACKBONE|DICT|INTERRES
    55   27   91 1    
    56   28   29 2    
    57   28   30 1    
    58   30   31 1    
    59   30   32 1    
    60   30   92 1    
    61   31   93 1    
    62   31   94 1    
    63   31   95 1    
    64   32   33 am   BACKBONE|DICT|INTERRES
    65   32   96 1    
    66   33   34 2    
    67   33   35 1    
    68   35   36 1    
    69   35   37 1    
    70   35   97 1    
    71   36   98 1    
    72   36   99 1    
    73   36  100 1    
    74   37   38 am   BACKBONE|DICT|INTERRES
    75   37  101 1    
    76   38   39 2    
    77   38   40 1    
    78   40   41 1    
    79   40   42 1    
    80   40  102 1    
    81   41  103 1    
    82   41  104 1    
    83   41  105 1    
    84   42   43 am   BACKBONE|DICT|INTERRES
    85   42  106 1    
    86   43   44 2    
    87   43   45 1    
    88   45   46 1    
    89   45   49 1    
    90   45  107 1    
    91   46   47 1    
    92   46  108 1    
    93   46  109 1    
    94   47   48 1    
    95   48  110 1    
    96   48  111 1    
    97   49   50 am   BACKBONE|DICT|INTERRES
    98   49  112 1    
    99   50   51 2    
   100   50   52 1    
   101   52   53 1    
   102   52   54 1    
   103   52  113 1    
   104   53  114 1    
   105   53  115 1    
   106   53  116 1    
   107   54   55 am   BACKBONE|DICT|INTERRES
   108   54  117 1    
   109   55   56 2    
   110   55   57 1    
   111   57   58 1    
   112   57   59 1    
   113   57  118 1    
   114   58  119 1    
   115   58  120 1    
   116   58  121 1    
   117   59   60 am   BACKBONE|DICT|INTERRES
   118   59  122 1    
   119   60   61 2    
   120   60   62 1    
   121   62   63 1    
   122   62   64 1    
   123   62  123 1    
   124   63  124 1    
   125   63  125 1    
   126   63  126 1    
   127   64   65 am   BACKBONE|DICT|INTERRES
   128   64  127 1    
   129   65   66 2    
@<TRIPOS>SUBSTRUCTURE
     1 UNK         1 GROUP             0       ****    0 ROOT    
