@<TRIPOS>MOLECULE
3R135
127   129    1
SMALL
USER_CHARGES


@<TRIPOS>ATOM
      1 CA        -74.9356   23.5115  -70.2321 C.3       0 UNK        -0.1998 
      2 C         -76.4550   23.5147  -70.3154 C.2       0 UNK         0.4909 
      3 O         -77.0931   22.5449  -69.9043 O.2       0 UNK        -0.5240 
      4 N         -77.0385   24.6029  -70.8340 N.am      1 UNK        -0.4739 
      5 CA        -78.4763   24.7566  -71.0674 C.3       1 UNK         0.0864 
      6 C6        -78.8175   26.2247  -71.4241 C.3       11 UNK        -0.0881 
      7 S7        -80.6128   26.5526  -71.5202 S.3       11 UNK        -0.2682 
      8 C8        -80.6750   28.3382  -71.1747 C.3       11 UNK         0.0289 
      9 C9        -79.8985   29.1422  -72.2072 C.ar      11 UNK        -0.0687 
     10 C10       -80.4056   29.3053  -73.4999 C.ar      11 UNK        -0.0823 
     11 C11       -79.6928   30.0379  -74.4543 C.ar      11 UNK        -0.0830 
     12 C12       -78.4718   30.6204  -74.1043 C.ar      11 UNK        -0.1021 
     13 C13       -77.9535   30.4580  -72.8165 C.ar      11 UNK        -0.0753 
     14 C14       -78.6716   29.7217  -71.8707 C.ar      11 UNK        -0.0933 
     15 C15       -76.6214   31.0861  -72.4469 C.3       11 UNK         0.0166 
     16 S16       -75.2774   29.8602  -72.4743 S.3       11 UNK        -0.2615 
     17 C17       -73.8419   30.9795  -72.5968 C.3       11 UNK        -0.0865 
     18 CA        -73.2933   31.0225  -74.0528 C.3       10 UNK         0.0862 
     19 C         -72.4928   32.3223  -74.3822 C.2       10 UNK         0.5551 
     20 N         -71.5463   32.2917  -75.3129 N.am      10 UNK        -0.7319 
     21 O         -72.7535   33.3830  -73.8193 O.2       10 UNK        -0.5018 
     22 N         -72.6256   29.7631  -74.4328 N.am      10 UNK        -0.4509 
     23 C         -71.4453   29.3263  -73.9657 C.2       10 UNK         0.4899 
     24 O         -70.7760   29.9248  -73.1216 O.2       10 UNK        -0.4839 
     25 CA        -70.9137   28.0135  -74.5696 C.3       9 UNK         0.0222 
     26 CB        -69.6885   27.4428  -73.8221 C.3       9 UNK        -0.1966 
     27 N         -71.9629   27.0043  -74.7334 N.am      9 UNK        -0.4218 
     28 C         -72.6588   26.3767  -73.7700 C.2       9 UNK         0.5020 
     29 O         -72.4518   26.5292  -72.5655 O.2       9 UNK        -0.5274 
     30 CA        -73.7810   25.4139  -74.2134 C.3       8 UNK         0.0270 
     31 CB        -75.1194   25.7946  -73.5494 C.3       8 UNK        -0.1976 
     32 N         -73.9351   25.3777  -75.6737 N.am      8 UNK        -0.4313 
     33 C         -73.2493   24.5636  -76.4924 C.2       8 UNK         0.5041 
     34 O         -72.5551   23.6295  -76.0912 O.2       8 UNK        -0.5577 
     35 CA        -73.2796   24.8658  -78.0051 C.3       7 UNK         0.0284 
     36 CB        -74.0082   23.7745  -78.8074 C.3       7 UNK        -0.1958 
     37 N         -73.8511   26.1764  -78.3265 N.am      7 UNK        -0.4454 
     38 C         -73.1867   27.3359  -78.2183 C.2       7 UNK         0.5089 
     39 O         -72.0130   27.4166  -77.8580 O.2       7 UNK        -0.5125 
     40 CA        -73.9883   28.6255  -78.4750 C.3       6 UNK         0.0408 
     41 CB        -73.9929   28.9709  -79.9717 C.3       6 UNK        -0.1791 
     42 N         -75.3676   28.5453  -77.9830 N.am      6 UNK        -0.4762 
     43 C         -75.7025   28.3465  -76.6999 C.2       6 UNK         0.5007 
     44 O         -74.8663   28.2811  -75.7992 O.2       6 UNK        -0.5032 
     45 CA        -77.1941   28.1294  -76.3678 C.3       5 UNK         0.0783 
     46 C46       -78.1505   28.9170  -77.3080 C.3       11 UNK        -0.0857 
     47 S47       -79.9147   28.7208  -76.8744 S.3       11 UNK        -0.2512 
     48 C48       -80.2446   30.1965  -75.8622 C.3       11 UNK         0.0225 
     49 N         -77.5376   26.7040  -76.2621 N.am      5 UNK        -0.4615 
     50 C         -77.3805   25.7423  -77.1842 C.2       4 UNK         0.5053 
     51 O         -76.7621   25.8902  -78.2385 O.2       4 UNK        -0.5105 
     52 CA        -78.0511   24.3864  -76.8941 C.3       4 UNK         0.0263 
     53 CB        -77.0648   23.3826  -76.2774 C.3       4 UNK        -0.1981 
     54 N         -79.2150   24.5156  -76.0129 N.am      4 UNK        -0.4224 
     55 C         -80.4254   24.9335  -76.4191 C.2       3 UNK         0.4895 
     56 O         -80.6838   25.2144  -77.5907 O.2       3 UNK        -0.5091 
     57 CA        -81.5295   25.0681  -75.3460 C.3       3 UNK         0.0250 
     58 CB        -82.9503   24.8968  -75.9239 C.3       3 UNK        -0.1996 
     59 N         -81.3292   24.1970  -74.1816 N.am      3 UNK        -0.4254 
     60 C         -81.2429   22.8563  -74.1651 C.2       2 UNK         0.5004 
     61 O         -81.4598   22.1429  -75.1456 O.2       2 UNK        -0.5226 
     62 CA        -80.8071   22.2069  -72.8325 C.3       2 UNK         0.0269 
     63 CB        -79.9764   20.9249  -73.0566 C.3       2 UNK        -0.1926 
     64 N         -80.0958   23.1212  -71.9225 N.am      2 UNK        -0.4687 
     65 C         -78.9573   23.7900  -72.1693 C.2       1 UNK         0.5165 
     66 O         -78.3420   23.7343  -73.2370 O.2       1 UNK        -0.5079 
     67 H67       -74.6149   23.2493  -69.2242 H         1 UNK         0.0900 
     68 H68       -74.5093   24.4841  -70.4776 H         1 UNK         0.0900 
     69 H69       -74.5248   22.7757  -70.9230 H         1 UNK         0.0900 
     70 H70       -76.4611   25.3621  -71.1623 H         1 UNK         0.2959 
     71 H71       -78.9835   24.5031  -70.1335 H         1 UNK         0.1079 
     72 H72       -78.3570   26.5150  -72.3711 H         1 UNK         0.0837 
     73 H73       -78.3925   26.8866  -70.6678 H         1 UNK         0.0837 
     74 H74       -81.7167   28.6622  -71.1726 H         1 UNK         0.0685 
     75 H75       -80.2950   28.5242  -70.1689 H         1 UNK         0.0685 
     76 H76       -81.3501   28.8503  -73.7659 H         1 UNK         0.1434 
     77 H77       -77.9178   31.1896  -74.8383 H         1 UNK         0.1329 
     78 H78       -78.2688   29.5961  -70.8749 H         1 UNK         0.1335 
     79 H79       -76.3909   31.8974  -73.1396 H         1 UNK         0.0680 
     80 H80       -76.6818   31.5351  -71.4543 H         1 UNK         0.0680 
     81 H81       -74.1433   31.9683  -72.2474 H         1 UNK         0.1032 
     82 H82       -73.0715   30.6495  -71.8988 H         1 UNK         0.1032 
     83 H83       -74.1554   31.0920  -74.7178 H         1 UNK         0.0461 
     84 H84       -71.0401   33.1355  -75.5310 H         1 UNK         0.3453 
     85 H85       -71.3298   31.4330  -75.7923 H         1 UNK         0.3453 
     86 H86       -73.1503   29.1783  -75.0740 H         1 UNK         0.2984 
     87 H87       -70.5843   28.2639  -75.5789 H         1 UNK         0.0554 
     88 H88       -68.8583   28.1500  -73.8395 H         1 UNK         0.0847 
     89 H89       -69.3360   26.5201  -74.2829 H         1 UNK         0.0847 
     90 H90       -69.9101   27.2329  -72.7754 H         1 UNK         0.0847 
     91 H91       -72.2138   26.8146  -75.6949 H         1 UNK         0.3141 
     92 H92       -73.5046   24.4214  -73.8517 H         1 UNK         0.0743 
     93 H93       -75.4995   26.7534  -73.8973 H         1 UNK         0.0784 
     94 H94       -75.8859   25.0434  -73.7250 H         1 UNK         0.0784 
     95 H95       -75.0041   25.8803  -72.4696 H         1 UNK         0.0784 
     96 H96       -74.4510   26.1499  -76.0762 H         1 UNK         0.3213 
     97 H97       -72.2368   24.8570  -78.3311 H         1 UNK         0.0855 
     98 H98       -73.7161   22.7755  -78.4804 H         1 UNK         0.0814 
     99 H99       -73.7654   23.8478  -79.8675 H         1 UNK         0.0814 
    100 H100      -75.0899   23.8500  -78.7194 H         1 UNK         0.0814 
    101 H101      -74.8411   26.1971  -78.5606 H         1 UNK         0.3105 
    102 H102      -73.4910   29.4369  -77.9392 H         1 UNK         0.0547 
    103 H103      -72.9750   29.0550  -80.3550 H         1 UNK         0.0837 
    104 H104      -74.5013   28.2080  -80.5626 H         1 UNK         0.0837 
    105 H105      -74.4864   29.9250  -80.1577 H         1 UNK         0.0837 
    106 H106      -76.0990   28.5339  -78.6796 H         1 UNK         0.3020 
    107 H107      -77.3184   28.5285  -75.3612 H         1 UNK         0.1245 
    108 H108      -78.0458   28.5742  -78.3386 H         1 UNK         0.0781 
    109 H109      -77.8992   29.9792  -77.3123 H         1 UNK         0.0781 
    110 H110      -81.3233   30.3522  -75.8121 H         1 UNK         0.0836 
    111 H111      -79.8350   31.0834  -76.3479 H         1 UNK         0.0836 
    112 H112      -78.0513   26.4553  -75.4303 H         1 UNK         0.3022 
    113 H113      -78.3852   23.9777  -77.8502 H         1 UNK         0.0747 
    114 H114      -76.2302   23.1797  -76.9443 H         1 UNK         0.0793 
    115 H115      -76.6480   23.7431  -75.3400 H         1 UNK         0.0793 
    116 H116      -77.5503   22.4275  -76.0753 H         1 UNK         0.0793 
    117 H117      -79.0741   24.2649  -75.0383 H         1 UNK         0.3047 
    118 H118      -81.4501   26.0904  -74.9720 H         1 UNK         0.0822 
    119 H119      -83.0848   23.9175  -76.3843 H         1 UNK         0.0807 
    120 H120      -83.1545   25.6461  -76.6898 H         1 UNK         0.0807 
    121 H121      -83.7098   25.0122  -75.1508 H         1 UNK         0.0807 
    122 H122      -81.1390   24.6782  -73.3123 H         1 UNK         0.2946 
    123 H123      -81.7304   21.9202  -72.3261 H         1 UNK         0.1144 
    124 H124      -79.6805   20.4731  -72.1099 H         1 UNK         0.0793 
    125 H125      -79.0704   21.1256  -73.6298 H         1 UNK         0.0793 
    126 H126      -80.5484   20.1757  -73.6055 H         1 UNK         0.0793 
    127 H127      -80.5436   23.2671  -71.0275 H         1 UNK         0.2896 
@<TRIPOS>BOND
     1    1    2 1    
     2    1   67 1    
     3    1   68 1    
     4    1   69 1    
     5    2    3 2    
     6    2    4 am   BACKBONE|DICT|INTERRES
     7    4    5 1    
     8    4   70 1    
     9    5    6 1    
    10    5   65 1    
    11    5   71 1    
    12    6    7 1    
    13    6   72 1    
    14    6   73 1    
    15    7    8 1    
    16    8    9 1    
    17    8   74 1    
    18    8   75 1    
    19    9   10 ar   
    20    9   14 ar   
    21   10   11 ar   
    22   10   76 1    
    23   11   12 ar   
    24   11   48 1    
    25   12   13 ar   
    26   12   77 1    
    27   13   14 ar   
    28   13   15 1    
    29   14   78 1    
    30   15   16 1    
    31   15   79 1    
    32   15   80 1    
    33   16   17 1    
    34   17   18 1    
    35   17   81 1    
    36   17   82 1    
    37   18   19 1    
    38   18   22 1    
    39   18   83 1    
    40   19   20 am   BACKBONE|DICT|INTERRES
    41   19   21 2    
    42   20   84 1    
    43   20   85 1    
    44   22   23 am   BACKBONE|DICT|INTERRES
    45   22   86 1    
    46   23   24 2    
    47   23   25 1    
    48   25   26 1    
    49   25   27 1    
    50   25   87 1    
    51   26   88 1    
    52   26   89 1    
    53   26   90 1    
    54   27   28 am   BACKBONE|DICT|INTERRES
    55   27   91 1    
    56   28   29 2    
    57   28   30 1    
    58   30   31 1    
    59   30   32 1    
    60   30   92 1    
    61   31   93 1    
    62   31   94 1    
    63   31   95 1    
    64   32   33 am   BACKBONE|DICT|INTERRES
    65   32   96 1    
    66   33   34 2    
    67   33   35 1    
    68   35   36 1    
    69   35   37 1    
    70   35   97 1    
    71   36   98 1    
    72   36   99 1    
    73   36  100 1    
    74   37   38 am   BACKBONE|DICT|INTERRES
    75   37  101 1    
    76   38   39 2    
    77   38   40 1    
    78   40   41 1    
    79   40   42 1    
    80   40  102 1    
    81   41  103 1    
    82   41  104 1    
    83   41  105 1    
    84   42   43 am   BACKBONE|DICT|INTERRES
    85   42  106 1    
    86   43   44 2    
    87   43   45 1    
    88   45   46 1    
    89   45   49 1    
    90   45  107 1    
    91   46   47 1    
    92   46  108 1    
    93   46  109 1    
    94   47   48 1    
    95   48  110 1    
    96   48  111 1    
    97   49   50 am   BACKBONE|DICT|INTERRES
    98   49  112 1    
    99   50   51 2    
   100   50   52 1    
   101   52   53 1    
   102   52   54 1    
   103   52  113 1    
   104   53  114 1    
   105   53  115 1    
   106   53  116 1    
   107   54   55 am   BACKBONE|DICT|INTERRES
   108   54  117 1    
   109   55   56 2    
   110   55   57 1    
   111   57   58 1    
   112   57   59 1    
   113   57  118 1    
   114   58  119 1    
   115   58  120 1    
   116   58  121 1    
   117   59   60 am   BACKBONE|DICT|INTERRES
   118   59  122 1    
   119   60   61 2    
   120   60   62 1    
   121   62   63 1    
   122   62   64 1    
   123   62  123 1    
   124   63  124 1    
   125   63  125 1    
   126   63  126 1    
   127   64   65 am   BACKBONE|DICT|INTERRES
   128   64  127 1    
   129   65   66 2    
@<TRIPOS>SUBSTRUCTURE
     1 UNK         1 GROUP             0       ****    0 ROOT    
