@<TRIPOS>MOLECULE
3R135
127   129    1
SMALL
USER_CHARGES


@<TRIPOS>ATOM
      1 CA        -78.0232   24.9909  -70.6230 C.3       0 UNK        -0.1998 
      2 C         -79.3857   24.6981  -71.2294 C.2       0 UNK         0.4909 
      3 O         -79.9745   23.6545  -70.9458 O.2       0 UNK        -0.5240 
      4 N         -79.8816   25.5954  -72.0910 N.am      1 UNK        -0.4739 
      5 CA        -81.1685   25.4836  -72.7917 C.3       1 UNK         0.0864 
      6 C6        -81.7119   26.8730  -73.2178 C.3       11 UNK        -0.0881 
      7 S7        -82.0429   27.9661  -71.7972 S.3       11 UNK        -0.2682 
      8 C8        -81.4847   29.5851  -72.4415 C.3       11 UNK         0.0289 
      9 C9        -79.9714   29.8240  -72.4588 C.ar      11 UNK        -0.0687 
     10 C10       -79.4741   30.8861  -73.2228 C.ar      11 UNK        -0.0823 
     11 C11       -78.1123   31.2036  -73.2137 C.ar      11 UNK        -0.0830 
     12 C12       -77.2353   30.4246  -72.4565 C.ar      11 UNK        -0.1021 
     13 C13       -77.7080   29.3562  -71.6844 C.ar      11 UNK        -0.0753 
     14 C14       -79.0766   29.0691  -71.6884 C.ar      11 UNK        -0.0933 
     15 C15       -76.7732   28.4900  -70.8412 C.3       11 UNK         0.0166 
     16 S16       -75.2796   29.3554  -70.2446 S.3       11 UNK        -0.2615 
     17 C17       -73.9711   28.1928  -70.7547 C.3       11 UNK        -0.0865 
     18 CA        -73.7484   28.1265  -72.2966 C.3       10 UNK         0.0862 
     19 C         -72.8453   29.2709  -72.8584 C.2       10 UNK         0.5551 
     20 N         -72.0532   29.0335  -73.8988 N.am      10 UNK        -0.7319 
     21 O         -72.8855   30.3991  -72.3762 O.2       10 UNK        -0.5018 
     22 N         -73.3590   26.7730  -72.7207 N.am      10 UNK        -0.4509 
     23 C         -72.1988   26.1780  -72.4163 C.2       10 UNK         0.4899 
     24 O         -71.3417   26.6750  -71.6846 O.2       10 UNK        -0.4839 
     25 CA        -71.9303   24.7925  -73.0218 C.3       9 UNK         0.0222 
     26 CB        -72.4166   23.7016  -72.0532 C.3       9 UNK        -0.1966 
     27 N         -72.4809   24.5320  -74.3584 N.am      9 UNK        -0.4218 
     28 C         -72.3835   25.2873  -75.4643 C.2       9 UNK         0.5020 
     29 O         -71.9806   26.4519  -75.4809 O.2       9 UNK        -0.5274 
     30 CA        -72.7290   24.5922  -76.7942 C.3       8 UNK         0.0270 
     31 CB        -73.0297   23.0768  -76.6570 C.3       8 UNK        -0.1976 
     32 N         -73.8332   25.2693  -77.4748 N.am      8 UNK        -0.4313 
     33 C         -74.1243   25.1089  -78.7735 C.2       8 UNK         0.5041 
     34 O         -73.4040   24.4960  -79.5636 O.2       8 UNK        -0.5577 
     35 CA        -75.4538   25.6786  -79.2840 C.3       7 UNK         0.0284 
     36 CB        -76.6438   24.9252  -78.6630 C.3       7 UNK        -0.1958 
     37 N         -75.5887   27.1087  -79.0115 N.am      7 UNK        -0.4454 
     38 C         -75.6606   28.0597  -79.9541 C.2       7 UNK         0.5089 
     39 O         -75.5107   27.8396  -81.1570 O.2       7 UNK        -0.5125 
     40 CA        -75.9995   29.4967  -79.5098 C.3       6 UNK         0.0408 
     41 CB        -77.3811   29.9100  -80.0448 C.3       6 UNK        -0.1791 
     42 N         -75.9949   29.6743  -78.0578 N.am      6 UNK        -0.4762 
     43 C         -74.9022   29.9065  -77.3198 C.2       6 UNK         0.5007 
     44 O         -73.7741   30.0422  -77.7941 O.2       6 UNK        -0.5032 
     45 CA        -75.0982   29.9694  -75.7896 C.3       5 UNK         0.0783 
     46 C46       -75.3084   31.4274  -75.3086 C.3       11 UNK        -0.0857 
     47 S47       -76.9957   32.0667  -75.6290 S.3       11 UNK        -0.2512 
     48 C48       -77.6039   32.4365  -73.9530 C.3       11 UNK         0.0225 
     49 N         -76.1471   29.0775  -75.2777 N.am      5 UNK        -0.4615 
     50 C         -76.2298   27.7591  -75.4790 C.2       4 UNK         0.5053 
     51 O         -75.3997   27.1103  -76.1166 O.2       4 UNK        -0.5105 
     52 CA        -77.5151   27.0886  -74.9698 C.3       4 UNK         0.0263 
     53 CB        -78.6882   27.5284  -75.8634 C.3       4 UNK        -0.1981 
     54 N         -77.4548   25.6236  -74.9703 N.am      4 UNK        -0.4224 
     55 C         -76.5758   24.8653  -74.2995 C.2       3 UNK         0.4895 
     56 O         -75.7171   25.3175  -73.5409 O.2       3 UNK        -0.5091 
     57 CA        -76.7184   23.3461  -74.4896 C.3       3 UNK         0.0250 
     58 CB        -75.8117   22.5379  -73.5434 C.3       3 UNK        -0.1996 
     59 N         -78.1082   22.9612  -74.2541 N.am      3 UNK        -0.4254 
     60 C         -78.9447   22.4218  -75.1502 C.2       2 UNK         0.5004 
     61 O         -78.6247   22.1170  -76.2987 O.2       2 UNK        -0.5226 
     62 CA        -80.3993   22.2217  -74.6848 C.3       2 UNK         0.0269 
     63 CB        -80.5878   20.8190  -74.0856 C.3       2 UNK        -0.1926 
     64 N         -80.8015   23.2309  -73.6982 N.am      2 UNK        -0.4687 
     65 C         -81.0316   24.5183  -73.9897 C.2       1 UNK         0.5165 
     66 O         -81.0683   24.9483  -75.1431 O.2       1 UNK        -0.5079 
     67 H67       -77.3717   25.4878  -71.3394 H         1 UNK         0.0900 
     68 H68       -77.5340   24.0657  -70.3188 H         1 UNK         0.0900 
     69 H69       -78.1285   25.6252  -69.7435 H         1 UNK         0.0900 
     70 H70       -79.3502   26.4256  -72.3048 H         1 UNK         0.2959 
     71 H71       -81.9006   25.0407  -72.1120 H         1 UNK         0.1079 
     72 H72       -81.0121   27.3700  -73.8889 H         1 UNK         0.0837 
     73 H73       -82.6446   26.7655  -73.7750 H         1 UNK         0.0837 
     74 H74       -81.8913   29.7180  -73.4455 H         1 UNK         0.0685 
     75 H75       -81.9372   30.3625  -71.8246 H         1 UNK         0.0685 
     76 H76       -80.1582   31.4954  -73.7982 H         1 UNK         0.1434 
     77 H77       -76.1842   30.6732  -72.4472 H         1 UNK         0.1329 
     78 H78       -79.4422   28.2666  -71.0648 H         1 UNK         0.1335 
     79 H79       -76.4906   27.6229  -71.4371 H         1 UNK         0.0680 
     80 H80       -77.3038   28.1052  -69.9690 H         1 UNK         0.0680 
     81 H81       -73.0436   28.4524  -70.2411 H         1 UNK         0.1032 
     82 H82       -74.2496   27.2112  -70.3671 H         1 UNK         0.1032 
     83 H83       -74.7088   28.2826  -72.7861 H         1 UNK         0.0461 
     84 H84       -71.4698   29.7729  -74.2553 H         1 UNK         0.3453 
     85 H85       -72.0261   28.1142  -74.3295 H         1 UNK         0.3453 
     86 H86       -74.0388   26.2659  -73.2814 H         1 UNK         0.2984 
     87 H87       -70.8472   24.6960  -73.1177 H         1 UNK         0.0554 
     88 H88       -72.1613   22.7030  -72.4077 H         1 UNK         0.0847 
     89 H89       -73.4969   23.7461  -71.9092 H         1 UNK         0.0847 
     90 H90       -71.9565   23.8197  -71.0709 H         1 UNK         0.0847 
     91 H91       -72.8420   23.6002  -74.4943 H         1 UNK         0.3141 
     92 H92       -71.8368   24.6985  -77.4149 H         1 UNK         0.0743 
     93 H93       -72.2201   22.5492  -76.1507 H         1 UNK         0.0784 
     94 H94       -73.9543   22.8912  -76.1104 H         1 UNK         0.0784 
     95 H95       -73.1331   22.6035  -77.6334 H         1 UNK         0.0784 
     96 H96       -74.4135   25.8800  -76.8963 H         1 UNK         0.3213 
     97 H97       -75.4847   25.4942  -80.3602 H         1 UNK         0.0855 
     98 H98       -76.5681   23.8528  -78.8484 H         1 UNK         0.0814 
     99 H99       -77.5895   25.2610  -79.0887 H         1 UNK         0.0814 
    100 H100      -76.6961   25.0648  -77.5845 H         1 UNK         0.0814 
    101 H101      -75.6347   27.3785  -78.0345 H         1 UNK         0.3105 
    102 H102      -75.2539   30.1602  -79.9532 H         1 UNK         0.0547 
    103 H103      -77.4167   29.8413  -81.1329 H         1 UNK         0.0837 
    104 H104      -78.1742   29.2721  -79.6528 H         1 UNK         0.0837 
    105 H105      -77.6170   30.9412  -79.7811 H         1 UNK         0.0837 
    106 H106      -76.8839   29.6025  -77.5842 H         1 UNK         0.3020 
    107 H107      -74.1579   29.6101  -75.3759 H         1 UNK         0.1245 
    108 H108      -74.5892   32.1001  -75.7804 H         1 UNK         0.0781 
    109 H109      -75.0881   31.4912  -74.2434 H         1 UNK         0.0781 
    110 H110      -78.4082   33.1691  -74.0365 H         1 UNK         0.0836 
    111 H111      -76.8199   32.9284  -73.3750 H         1 UNK         0.0836 
    112 H112      -76.8917   29.5419  -74.7751 H         1 UNK         0.3022 
    113 H113      -77.6948   27.4147  -73.9441 H         1 UNK         0.0747 
    114 H114      -79.6100   27.0160  -75.6026 H         1 UNK         0.0793 
    115 H115      -78.8825   28.5978  -75.7688 H         1 UNK         0.0793 
    116 H116      -78.4920   27.3221  -76.9169 H         1 UNK         0.0793 
    117 H117      -78.1271   25.1537  -75.5593 H         1 UNK         0.3047 
    118 H118      -76.4268   23.1241  -75.5183 H         1 UNK         0.0822 
    119 H119      -75.9472   21.4658  -73.6862 H         1 UNK         0.0807 
    120 H120      -76.0145   22.7644  -72.4958 H         1 UNK         0.0807 
    121 H121      -74.7612   22.7555  -73.7287 H         1 UNK         0.0807 
    122 H122      -78.4826   23.1845  -73.3435 H         1 UNK         0.2946 
    123 H123      -81.0432   22.3132  -75.5630 H         1 UNK         0.1144 
    124 H124      -81.6277   20.6428  -73.8097 H         1 UNK         0.0793 
    125 H125      -79.9747   20.6725  -73.1954 H         1 UNK         0.0793 
    126 H126      -80.3093   20.0473  -74.8048 H         1 UNK         0.0793 
    127 H127      -80.7442   22.9748  -72.7173 H         1 UNK         0.2896 
@<TRIPOS>BOND
     1    1    2 1    
     2    1   67 1    
     3    1   68 1    
     4    1   69 1    
     5    2    3 2    
     6    2    4 am   BACKBONE|DICT|INTERRES
     7    4    5 1    
     8    4   70 1    
     9    5    6 1    
    10    5   65 1    
    11    5   71 1    
    12    6    7 1    
    13    6   72 1    
    14    6   73 1    
    15    7    8 1    
    16    8    9 1    
    17    8   74 1    
    18    8   75 1    
    19    9   10 ar   
    20    9   14 ar   
    21   10   11 ar   
    22   10   76 1    
    23   11   12 ar   
    24   11   48 1    
    25   12   13 ar   
    26   12   77 1    
    27   13   14 ar   
    28   13   15 1    
    29   14   78 1    
    30   15   16 1    
    31   15   79 1    
    32   15   80 1    
    33   16   17 1    
    34   17   18 1    
    35   17   81 1    
    36   17   82 1    
    37   18   19 1    
    38   18   22 1    
    39   18   83 1    
    40   19   20 am   BACKBONE|DICT|INTERRES
    41   19   21 2    
    42   20   84 1    
    43   20   85 1    
    44   22   23 am   BACKBONE|DICT|INTERRES
    45   22   86 1    
    46   23   24 2    
    47   23   25 1    
    48   25   26 1    
    49   25   27 1    
    50   25   87 1    
    51   26   88 1    
    52   26   89 1    
    53   26   90 1    
    54   27   28 am   BACKBONE|DICT|INTERRES
    55   27   91 1    
    56   28   29 2    
    57   28   30 1    
    58   30   31 1    
    59   30   32 1    
    60   30   92 1    
    61   31   93 1    
    62   31   94 1    
    63   31   95 1    
    64   32   33 am   BACKBONE|DICT|INTERRES
    65   32   96 1    
    66   33   34 2    
    67   33   35 1    
    68   35   36 1    
    69   35   37 1    
    70   35   97 1    
    71   36   98 1    
    72   36   99 1    
    73   36  100 1    
    74   37   38 am   BACKBONE|DICT|INTERRES
    75   37  101 1    
    76   38   39 2    
    77   38   40 1    
    78   40   41 1    
    79   40   42 1    
    80   40  102 1    
    81   41  103 1    
    82   41  104 1    
    83   41  105 1    
    84   42   43 am   BACKBONE|DICT|INTERRES
    85   42  106 1    
    86   43   44 2    
    87   43   45 1    
    88   45   46 1    
    89   45   49 1    
    90   45  107 1    
    91   46   47 1    
    92   46  108 1    
    93   46  109 1    
    94   47   48 1    
    95   48  110 1    
    96   48  111 1    
    97   49   50 am   BACKBONE|DICT|INTERRES
    98   49  112 1    
    99   50   51 2    
   100   50   52 1    
   101   52   53 1    
   102   52   54 1    
   103   52  113 1    
   104   53  114 1    
   105   53  115 1    
   106   53  116 1    
   107   54   55 am   BACKBONE|DICT|INTERRES
   108   54  117 1    
   109   55   56 2    
   110   55   57 1    
   111   57   58 1    
   112   57   59 1    
   113   57  118 1    
   114   58  119 1    
   115   58  120 1    
   116   58  121 1    
   117   59   60 am   BACKBONE|DICT|INTERRES
   118   59  122 1    
   119   60   61 2    
   120   60   62 1    
   121   62   63 1    
   122   62   64 1    
   123   62  123 1    
   124   63  124 1    
   125   63  125 1    
   126   63  126 1    
   127   64   65 am   BACKBONE|DICT|INTERRES
   128   64  127 1    
   129   65   66 2    
@<TRIPOS>SUBSTRUCTURE
     1 UNK         1 GROUP             0       ****    0 ROOT    
