@<TRIPOS>MOLECULE
3R135
127   129    1
SMALL
USER_CHARGES


@<TRIPOS>ATOM
      1 CA        -81.1829   21.8476  -72.2277 C.3       0 UNK        -0.1998 
      2 C         -81.7615   23.1671  -72.7141 C.2       0 UNK         0.4909 
      3 O         -82.4545   23.1952  -73.7320 O.2       0 UNK        -0.5240 
      4 N         -81.4711   24.2633  -72.0020 N.am      1 UNK        -0.4739 
      5 CA        -81.8575   25.6385  -72.3381 C.3       1 UNK         0.0864 
      6 C6        -81.4780   26.6480  -71.2191 C.3       11 UNK        -0.0881 
      7 S7        -79.8188   26.4015  -70.4820 S.3       11 UNK        -0.2682 
      8 C8        -79.3278   28.1015  -70.0606 C.3       11 UNK         0.0289 
      9 C9        -78.3732   28.6923  -71.0883 C.ar      11 UNK        -0.0687 
     10 C10       -78.8628   29.3838  -72.2004 C.ar      11 UNK        -0.0823 
     11 C11       -77.9824   29.9789  -73.1113 C.ar      11 UNK        -0.0830 
     12 C12       -76.6031   29.8731  -72.9039 C.ar      11 UNK        -0.1021 
     13 C13       -76.1025   29.1709  -71.8046 C.ar      11 UNK        -0.0753 
     14 C14       -76.9918   28.5811  -70.9017 C.ar      11 UNK        -0.0933 
     15 C15       -74.6029   29.0616  -71.5840 C.3       11 UNK         0.0166 
     16 S16       -73.9717   30.5136  -70.6887 S.3       11 UNK        -0.2615 
     17 C17       -72.2517   30.0117  -70.3408 C.3       11 UNK        -0.0865 
     18 CA        -71.2121   30.7643  -71.2113 C.3       10 UNK         0.0862 
     19 C         -69.7731   30.4456  -70.7171 C.2       10 UNK         0.5551 
     20 N         -69.2261   31.2636  -69.8288 N.am      10 UNK        -0.7319 
     21 O         -69.1740   29.4413  -71.0977 O.2       10 UNK        -0.5018 
     22 N         -71.3979   30.4675  -72.6398 N.am      10 UNK        -0.4509 
     23 C         -70.7248   31.0357  -73.6496 C.2       10 UNK         0.4899 
     24 O         -69.9286   31.9647  -73.5056 O.2       10 UNK        -0.4839 
     25 CA        -70.9803   30.4531  -75.0506 C.3       9 UNK         0.0222 
     26 CB        -69.8456   30.7583  -76.0488 C.3       9 UNK        -0.1966 
     27 N         -71.1982   29.0066  -74.9673 N.am      9 UNK        -0.4218 
     28 C         -72.0426   28.3079  -75.7330 C.2       9 UNK         0.5020 
     29 O         -72.7065   28.7928  -76.6513 O.2       9 UNK        -0.5274 
     30 CA        -72.1780   26.8201  -75.3920 C.3       8 UNK         0.0270 
     31 CB        -72.9978   26.6200  -74.1025 C.3       8 UNK        -0.1976 
     32 N         -72.8233   26.1149  -76.4984 N.am      8 UNK        -0.4313 
     33 C         -72.6064   24.8321  -76.8153 C.2       8 UNK         0.5041 
     34 O         -71.8202   24.1094  -76.1986 O.2       8 UNK        -0.5577 
     35 CA        -73.3788   24.2535  -78.0145 C.3       7 UNK         0.0284 
     36 CB        -73.5443   22.7231  -77.9345 C.3       7 UNK        -0.1958 
     37 N         -74.6990   24.8687  -78.1533 N.am      7 UNK        -0.4454 
     38 C         -75.2517   25.2413  -79.3160 C.2       7 UNK         0.5089 
     39 O         -74.6830   25.1261  -80.4028 O.2       7 UNK        -0.5125 
     40 CA        -76.6783   25.8315  -79.2950 C.3       6 UNK         0.0408 
     41 CB        -77.6804   24.8176  -79.8709 C.3       6 UNK        -0.1791 
     42 N         -77.1555   26.2634  -77.9795 N.am      6 UNK        -0.4762 
     43 C         -76.6091   27.2293  -77.2277 C.2       6 UNK         0.5007 
     44 O         -75.6398   27.8992  -77.5809 O.2       6 UNK        -0.5032 
     45 CA        -77.2179   27.4359  -75.8245 C.3       5 UNK         0.0783 
     46 C46       -78.4190   28.4149  -75.8849 C.3       11 UNK        -0.0857 
     47 S47       -77.8900   30.1591  -75.9015 S.3       11 UNK        -0.2512 
     48 C48       -78.5263   30.7603  -74.3019 C.3       11 UNK         0.0225 
     49 N         -77.5892   26.1747  -75.1684 N.am      5 UNK        -0.4615 
     50 C         -76.7986   25.1071  -74.9786 C.2       4 UNK         0.5053 
     51 O         -75.6249   25.0468  -75.3368 O.2       4 UNK        -0.5105 
     52 CA        -77.4499   23.8706  -74.3440 C.3       4 UNK         0.0263 
     53 CB        -77.6091   24.0392  -72.8243 C.3       4 UNK        -0.1981 
     54 N         -78.7475   23.6051  -74.9655 N.am      4 UNK        -0.4224 
     55 C         -78.8971   22.9980  -76.1529 C.2       3 UNK         0.4895 
     56 O         -77.9722   22.4775  -76.7765 O.2       3 UNK        -0.5091 
     57 CA        -80.3074   22.9843  -76.7682 C.3       3 UNK         0.0250 
     58 CB        -81.0261   21.6622  -76.4558 C.3       3 UNK        -0.1996 
     59 N         -81.1321   24.1149  -76.3317 N.am      3 UNK        -0.4254 
     60 C         -80.9389   25.3792  -76.7395 C.2       2 UNK         0.5004 
     61 O         -80.0701   25.7082  -77.5468 O.2       2 UNK        -0.5226 
     62 CA        -81.8249   26.4696  -76.1073 C.3       2 UNK         0.0269 
     63 CB        -83.1040   26.6684  -76.9351 C.3       2 UNK        -0.1926 
     64 N         -82.1831   26.2050  -74.7093 N.am      2 UNK        -0.4687 
     65 C         -81.2981   26.0453  -73.7153 C.2       1 UNK         0.5165 
     66 O         -80.0818   26.1394  -73.8753 O.2       1 UNK        -0.5079 
     67 H67       -81.9716   21.1009  -72.1411 H         1 UNK         0.0900 
     68 H68       -80.4400   21.4803  -72.9350 H         1 UNK         0.0900 
     69 H69       -80.7040   21.9484  -71.2539 H         1 UNK         0.0900 
     70 H70       -80.8689   24.1879  -71.1937 H         1 UNK         0.2959 
     71 H71       -82.9470   25.6452  -72.4155 H         1 UNK         0.1079 
     72 H72       -82.1991   26.5595  -70.4051 H         1 UNK         0.0837 
     73 H73       -81.5771   27.6736  -71.5796 H         1 UNK         0.0837 
     74 H74       -80.2075   28.7365  -69.9469 H         1 UNK         0.0685 
     75 H75       -78.8469   28.0861  -69.0813 H         1 UNK         0.0685 
     76 H76       -79.9306   29.4700  -72.3461 H         1 UNK         0.1434 
     77 H77       -75.9186   30.3408  -73.5987 H         1 UNK         0.1329 
     78 H78       -76.6083   28.0484  -70.0422 H         1 UNK         0.1335 
     79 H79       -74.3727   28.1529  -71.0254 H         1 UNK         0.0680 
     80 H80       -74.0929   28.9780  -72.5439 H         1 UNK         0.0680 
     81 H81       -72.0720   30.2137  -69.2828 H         1 UNK         0.1032 
     82 H82       -72.1432   28.9315  -70.4564 H         1 UNK         0.1032 
     83 H83       -71.3781   31.8366  -71.0874 H         1 UNK         0.0461 
     84 H84       -69.7149   32.0839  -69.5047 H         1 UNK         0.3453 
     85 H85       -68.2999   31.0644  -69.4840 H         1 UNK         0.3453 
     86 H86       -72.0530   29.7333  -72.8543 H         1 UNK         0.2984 
     87 H87       -71.8916   30.9343  -75.4121 H         1 UNK         0.0554 
     88 H88       -69.6982   31.8332  -76.1613 H         1 UNK         0.0847 
     89 H89       -70.0703   30.3608  -77.0386 H         1 UNK         0.0847 
     90 H90       -68.8977   30.3294  -75.7220 H         1 UNK         0.0847 
     91 H91       -70.6748   28.5249  -74.2476 H         1 UNK         0.3141 
     92 H92       -71.1715   26.4212  -75.2472 H         1 UNK         0.0743 
     93 H93       -73.9984   27.0446  -74.1952 H         1 UNK         0.0784 
     94 H94       -73.1112   25.5616  -73.8666 H         1 UNK         0.0784 
     95 H95       -72.5150   27.0890  -73.2450 H         1 UNK         0.0784 
     96 H96       -73.4402   26.6871  -77.0654 H         1 UNK         0.3213 
     97 H97       -72.7690   24.4830  -78.8908 H         1 UNK         0.0855 
     98 H98       -74.1138   22.4306  -77.0512 H         1 UNK         0.0814 
     99 H99       -72.5769   22.2220  -77.8840 H         1 UNK         0.0814 
    100 H100      -74.0621   22.3336  -78.8110 H         1 UNK         0.0814 
    101 H101      -75.2095   25.0107  -77.2848 H         1 UNK         0.3105 
    102 H102      -76.6713   26.7097  -79.9435 H         1 UNK         0.0547 
    103 H103      -77.3829   24.4934  -80.8691 H         1 UNK         0.0837 
    104 H104      -77.7530   23.9264  -79.2462 H         1 UNK         0.0837 
    105 H105      -78.6780   25.2488  -79.9567 H         1 UNK         0.0837 
    106 H106      -77.9970   25.8125  -77.6343 H         1 UNK         0.3020 
    107 H107      -76.4371   27.8727  -75.1981 H         1 UNK         0.1245 
    108 H108      -79.0717   28.2677  -75.0244 H         1 UNK         0.0781 
    109 H109      -79.0469   28.2277  -76.7580 H         1 UNK         0.0781 
    110 H110      -79.6168   30.7268  -74.3252 H         1 UNK         0.0836 
    111 H111      -78.2550   31.8106  -74.1876 H         1 UNK         0.0836 
    112 H112      -78.5307   26.1405  -74.7812 H         1 UNK         0.3022 
    113 H113      -76.7927   23.0155  -74.5174 H         1 UNK         0.0747 
    114 H114      -78.0714   23.1615  -72.3730 H         1 UNK         0.0793 
    115 H115      -76.6376   24.1761  -72.3478 H         1 UNK         0.0793 
    116 H116      -78.2161   24.9067  -72.5679 H         1 UNK         0.0793 
    117 H117      -79.5473   24.0652  -74.5523 H         1 UNK         0.3047 
    118 H118      -80.1889   23.0529  -77.8520 H         1 UNK         0.0822 
    119 H119      -82.0115   21.6262  -76.9205 H         1 UNK         0.0807 
    120 H120      -81.1549   21.5114  -75.3844 H         1 UNK         0.0807 
    121 H121      -80.4577   20.8123  -76.8363 H         1 UNK         0.0807 
    122 H122      -81.8368   23.9247  -75.6263 H         1 UNK         0.2946 
    123 H123      -81.2575   27.4016  -76.1301 H         1 UNK         0.1144 
    124 H124      -83.6956   27.5030  -76.5584 H         1 UNK         0.0793 
    125 H125      -83.7337   25.7777  -76.9269 H         1 UNK         0.0793 
    126 H126      -82.8639   26.8883  -77.9765 H         1 UNK         0.0793 
    127 H127      -83.1653   26.0706  -74.5142 H         1 UNK         0.2896 
@<TRIPOS>BOND
     1    1    2 1    
     2    1   67 1    
     3    1   68 1    
     4    1   69 1    
     5    2    3 2    
     6    2    4 am   BACKBONE|DICT|INTERRES
     7    4    5 1    
     8    4   70 1    
     9    5    6 1    
    10    5   65 1    
    11    5   71 1    
    12    6    7 1    
    13    6   72 1    
    14    6   73 1    
    15    7    8 1    
    16    8    9 1    
    17    8   74 1    
    18    8   75 1    
    19    9   10 ar   
    20    9   14 ar   
    21   10   11 ar   
    22   10   76 1    
    23   11   12 ar   
    24   11   48 1    
    25   12   13 ar   
    26   12   77 1    
    27   13   14 ar   
    28   13   15 1    
    29   14   78 1    
    30   15   16 1    
    31   15   79 1    
    32   15   80 1    
    33   16   17 1    
    34   17   18 1    
    35   17   81 1    
    36   17   82 1    
    37   18   19 1    
    38   18   22 1    
    39   18   83 1    
    40   19   20 am   BACKBONE|DICT|INTERRES
    41   19   21 2    
    42   20   84 1    
    43   20   85 1    
    44   22   23 am   BACKBONE|DICT|INTERRES
    45   22   86 1    
    46   23   24 2    
    47   23   25 1    
    48   25   26 1    
    49   25   27 1    
    50   25   87 1    
    51   26   88 1    
    52   26   89 1    
    53   26   90 1    
    54   27   28 am   BACKBONE|DICT|INTERRES
    55   27   91 1    
    56   28   29 2    
    57   28   30 1    
    58   30   31 1    
    59   30   32 1    
    60   30   92 1    
    61   31   93 1    
    62   31   94 1    
    63   31   95 1    
    64   32   33 am   BACKBONE|DICT|INTERRES
    65   32   96 1    
    66   33   34 2    
    67   33   35 1    
    68   35   36 1    
    69   35   37 1    
    70   35   97 1    
    71   36   98 1    
    72   36   99 1    
    73   36  100 1    
    74   37   38 am   BACKBONE|DICT|INTERRES
    75   37  101 1    
    76   38   39 2    
    77   38   40 1    
    78   40   41 1    
    79   40   42 1    
    80   40  102 1    
    81   41  103 1    
    82   41  104 1    
    83   41  105 1    
    84   42   43 am   BACKBONE|DICT|INTERRES
    85   42  106 1    
    86   43   44 2    
    87   43   45 1    
    88   45   46 1    
    89   45   49 1    
    90   45  107 1    
    91   46   47 1    
    92   46  108 1    
    93   46  109 1    
    94   47   48 1    
    95   48  110 1    
    96   48  111 1    
    97   49   50 am   BACKBONE|DICT|INTERRES
    98   49  112 1    
    99   50   51 2    
   100   50   52 1    
   101   52   53 1    
   102   52   54 1    
   103   52  113 1    
   104   53  114 1    
   105   53  115 1    
   106   53  116 1    
   107   54   55 am   BACKBONE|DICT|INTERRES
   108   54  117 1    
   109   55   56 2    
   110   55   57 1    
   111   57   58 1    
   112   57   59 1    
   113   57  118 1    
   114   58  119 1    
   115   58  120 1    
   116   58  121 1    
   117   59   60 am   BACKBONE|DICT|INTERRES
   118   59  122 1    
   119   60   61 2    
   120   60   62 1    
   121   62   63 1    
   122   62   64 1    
   123   62  123 1    
   124   63  124 1    
   125   63  125 1    
   126   63  126 1    
   127   64   65 am   BACKBONE|DICT|INTERRES
   128   64  127 1    
   129   65   66 2    
@<TRIPOS>SUBSTRUCTURE
     1 UNK         1 GROUP             0       ****    0 ROOT    
