@<TRIPOS>MOLECULE
3R135
127   129    1
SMALL
USER_CHARGES


@<TRIPOS>ATOM
      1 CA        -83.8992   26.0868  -70.8125 C.3       0 UNK        -0.1998 
      2 C         -83.7252   26.5985  -72.2344 C.2       0 UNK         0.4909 
      3 O         -84.6630   26.5300  -73.0294 O.2       0 UNK        -0.5240 
      4 N         -82.5310   27.1100  -72.5611 N.am      1 UNK        -0.4739 
      5 CA        -82.1863   27.6590  -73.8821 C.3       1 UNK         0.0864 
      6 C6        -80.9436   28.5814  -73.8199 C.3       11 UNK        -0.0881 
      7 S7        -81.1425   29.9438  -72.6233 S.3       11 UNK        -0.2682 
      8 C8        -79.7029   30.9914  -73.0290 C.3       11 UNK         0.0289 
      9 C9        -78.3475   30.3101  -72.8413 C.ar      11 UNK        -0.0687 
     10 C10       -78.1178   29.4054  -71.7966 C.ar      11 UNK        -0.0823 
     11 C11       -76.8715   28.7920  -71.6398 C.ar      11 UNK        -0.0830 
     12 C12       -75.8363   29.1204  -72.5192 C.ar      11 UNK        -0.1021 
     13 C13       -76.0449   30.0257  -73.5614 C.ar      11 UNK        -0.0753 
     14 C14       -77.3018   30.6156  -73.7186 C.ar      11 UNK        -0.0933 
     15 C15       -74.9243   30.3231  -74.5455 C.3       11 UNK         0.0166 
     16 S16       -74.0391   31.8699  -74.1804 S.3       11 UNK        -0.2615 
     17 C17       -73.2276   31.5369  -72.5796 C.3       11 UNK        -0.0865 
     18 CA        -71.7817   30.9837  -72.7270 C.3       10 UNK         0.0862 
     19 C         -70.9055   31.3992  -71.5167 C.2       10 UNK         0.5551 
     20 N         -70.3076   32.5812  -71.5631 N.am      10 UNK        -0.7319 
     21 O         -70.7881   30.6776  -70.5268 O.2       10 UNK        -0.5018 
     22 N         -71.7655   29.5203  -72.8467 N.am      10 UNK        -0.4509 
     23 C         -71.5660   28.8119  -73.9621 C.2       10 UNK         0.4899 
     24 O         -71.4608   29.3151  -75.0821 O.2       10 UNK        -0.4839 
     25 CA        -71.4359   27.2857  -73.7994 C.3       9 UNK         0.0222 
     26 CB        -72.0871   26.7338  -72.5136 C.3       9 UNK        -0.1966 
     27 N         -72.0359   26.6174  -74.9518 N.am      9 UNK        -0.4218 
     28 C         -71.4017   25.8002  -75.8011 C.2       9 UNK         0.5020 
     29 O         -70.2149   25.4836  -75.7005 O.2       9 UNK        -0.5274 
     30 CA        -72.2323   25.2239  -76.9612 C.3       8 UNK         0.0270 
     31 CB        -72.9881   23.9642  -76.5074 C.3       8 UNK        -0.1976 
     32 N         -73.1882   26.1815  -77.5184 N.am      8 UNK        -0.4313 
     33 C         -72.8791   27.2882  -78.2051 C.2       8 UNK         0.5041 
     34 O         -71.7254   27.6018  -78.5009 O.2       8 UNK        -0.5577 
     35 CA        -74.0351   28.2142  -78.6415 C.3       7 UNK         0.0284 
     36 CB        -74.4597   27.9217  -80.0945 C.3       7 UNK        -0.1958 
     37 N         -75.1951   28.2358  -77.7340 N.am      7 UNK        -0.4454 
     38 C         -76.0548   27.2479  -77.4521 C.2       7 UNK         0.5089 
     39 O         -76.0293   26.1364  -77.9814 O.2       7 UNK        -0.5125 
     40 CA        -77.0743   27.5265  -76.3381 C.3       6 UNK         0.0408 
     41 CB        -78.4981   27.5975  -76.9087 C.3       6 UNK        -0.1791 
     42 N         -77.0111   26.5050  -75.2893 N.am      6 UNK        -0.4762 
     43 C         -75.9309   26.2402  -74.5363 C.2       6 UNK         0.5007 
     44 O         -74.8565   26.8304  -74.6601 O.2       6 UNK        -0.5032 
     45 CA        -76.0457   25.1049  -73.5045 C.3       5 UNK         0.0783 
     46 C46       -76.8213   25.5310  -72.2295 C.3       11 UNK        -0.0857 
     47 S47       -75.7242   26.3024  -70.9922 S.3       11 UNK        -0.2512 
     48 C48       -76.6545   27.7960  -70.5044 C.3       11 UNK         0.0225 
     49 N         -76.6337   23.9186  -74.1280 N.am      5 UNK        -0.4615 
     50 C         -76.0538   22.7106  -74.1756 C.2       4 UNK         0.5053 
     51 O         -74.9668   22.4521  -73.6588 O.2       4 UNK        -0.5105 
     52 CA        -76.8034   21.5862  -74.9185 C.3       4 UNK         0.0263 
     53 CB        -77.5332   20.6767  -73.9166 C.3       4 UNK        -0.1981 
     54 N         -77.7691   22.0871  -75.8970 N.am      4 UNK        -0.4224 
     55 C         -77.4501   22.7255  -77.0311 C.2       3 UNK         0.4895 
     56 O         -76.3005   22.8014  -77.4634 O.2       3 UNK        -0.5091 
     57 CA        -78.5949   23.4094  -77.8072 C.3       3 UNK         0.0250 
     58 CB        -78.8454   22.6883  -79.1421 C.3       3 UNK        -0.1996 
     59 N         -79.8714   23.5257  -77.0835 N.am      3 UNK        -0.4254 
     60 C         -80.0748   24.1908  -75.9373 C.2       2 UNK         0.5004 
     61 O         -79.1782   24.7425  -75.2933 O.2       2 UNK        -0.5226 
     62 CA        -81.5041   24.1587  -75.3769 C.3       2 UNK         0.0269 
     63 CB        -81.7230   22.8755  -74.5583 C.3       2 UNK        -0.1926 
     64 N         -81.7677   25.3125  -74.5175 N.am      2 UNK        -0.4687 
     65 C         -81.9877   26.5615  -74.9518 C.2       1 UNK         0.5165 
     66 O         -82.0417   26.8647  -76.1447 O.2       1 UNK        -0.5079 
     67 H67       -84.1516   25.0268  -70.8233 H         1 UNK         0.0900 
     68 H68       -84.7071   26.6246  -70.3169 H         1 UNK         0.0900 
     69 H69       -82.9939   26.2142  -70.2193 H         1 UNK         0.0900 
     70 H70       -81.8047   27.1698  -71.8616 H         1 UNK         0.2959 
     71 H71       -83.0309   28.2646  -74.2192 H         1 UNK         0.1079 
     72 H72       -80.0505   28.0097  -73.5588 H         1 UNK         0.0837 
     73 H73       -80.7533   29.0244  -74.7992 H         1 UNK         0.0837 
     74 H74       -79.8133   31.3397  -74.0572 H         1 UNK         0.0685 
     75 H75       -79.7319   31.8800  -72.3974 H         1 UNK         0.0685 
     76 H76       -78.9148   29.1728  -71.1042 H         1 UNK         0.1434 
     77 H77       -74.8674   28.6553  -72.4068 H         1 UNK         0.1329 
     78 H78       -77.4630   31.3149  -74.5276 H         1 UNK         0.1335 
     79 H79       -74.2212   29.4926  -74.5833 H         1 UNK         0.0680 
     80 H80       -75.3414   30.4056  -75.5490 H         1 UNK         0.0680 
     81 H81       -73.8393   30.8841  -71.9577 H         1 UNK         0.1032 
     82 H82       -73.2221   32.4963  -72.0578 H         1 UNK         0.1032 
     83 H83       -71.3167   31.4219  -73.6128 H         1 UNK         0.0461 
     84 H84       -69.7427   32.8760  -70.7818 H         1 UNK         0.3453 
     85 H85       -70.4055   33.1841  -72.3656 H         1 UNK         0.3453 
     86 H86       -71.7762   29.0357  -71.9596 H         1 UNK         0.2984 
     87 H87       -70.3664   27.0729  -73.7530 H         1 UNK         0.0554 
     88 H88       -72.0277   25.6457  -72.4808 H         1 UNK         0.0847 
     89 H89       -73.1407   27.0044  -72.4472 H         1 UNK         0.0847 
     90 H90       -71.5874   27.1013  -71.6168 H         1 UNK         0.0847 
     91 H91       -73.0233   26.8133  -75.1031 H         1 UNK         0.3141 
     92 H92       -71.5405   24.9407  -77.7571 H         1 UNK         0.0743 
     93 H93       -73.7197   24.1903  -75.7308 H         1 UNK         0.0784 
     94 H94       -73.5189   23.4979  -77.3379 H         1 UNK         0.0784 
     95 H95       -72.3019   23.2196  -76.1018 H         1 UNK         0.0784 
     96 H96       -74.1757   25.9780  -77.3949 H         1 UNK         0.3213 
     97 H97       -73.6325   29.2284  -78.6191 H         1 UNK         0.0855 
     98 H98       -73.6126   28.0266  -80.7736 H         1 UNK         0.0814 
     99 H99       -75.2315   28.6142  -80.4302 H         1 UNK         0.0814 
    100 H100      -74.8425   26.9077  -80.2135 H         1 UNK         0.0814 
    101 H101      -75.2969   29.0942  -77.2124 H         1 UNK         0.3105 
    102 H102      -76.8494   28.4865  -75.8733 H         1 UNK         0.0547 
    103 H103      -78.5877   28.4039  -77.6372 H         1 UNK         0.0837 
    104 H104      -78.7811   26.6726  -77.4109 H         1 UNK         0.0837 
    105 H105      -79.2294   27.7845  -76.1248 H         1 UNK         0.0837 
    106 H106      -77.8437   25.9289  -75.1822 H         1 UNK         0.3020 
    107 H107      -75.0186   24.8706  -73.2138 H         1 UNK         0.1245 
    108 H108      -77.2573   24.6549  -71.7468 H         1 UNK         0.0781 
    109 H109      -77.6645   26.1833  -72.4661 H         1 UNK         0.0781 
    110 H110      -76.1108   28.2984  -69.7036 H         1 UNK         0.0836 
    111 H111      -77.6087   27.4821  -70.0783 H         1 UNK         0.0836 
    112 H112      -77.5274   24.0553  -74.5910 H         1 UNK         0.3022 
    113 H113      -76.0588   20.9888  -75.4491 H         1 UNK         0.0747 
    114 H114      -78.0125   19.8361  -74.4188 H         1 UNK         0.0793 
    115 H115      -76.8357   20.2612  -73.1878 H         1 UNK         0.0793 
    116 H116      -78.2994   21.2195  -73.3613 H         1 UNK         0.0793 
    117 H117      -78.7418   22.0572  -75.6312 H         1 UNK         0.3047 
    118 H118      -78.2521   24.4217  -78.0285 H         1 UNK         0.0822 
    119 H119      -79.5737   23.2223  -79.7526 H         1 UNK         0.0807 
    120 H120      -79.2118   21.6724  -78.9894 H         1 UNK         0.0807 
    121 H121      -77.9274   22.6188  -79.7278 H         1 UNK         0.0807 
    122 H122      -80.6632   23.0754  -77.5206 H         1 UNK         0.2946 
    123 H123      -82.2104   24.1775  -76.2104 H         1 UNK         0.1144 
    124 H124      -81.5811   21.9855  -75.1729 H         1 UNK         0.0793 
    125 H125      -82.7363   22.8296  -74.1584 H         1 UNK         0.0793 
    126 H126      -81.0289   22.8073  -73.7192 H         1 UNK         0.0793 
    127 H127      -81.7116   25.1620  -73.5213 H         1 UNK         0.2896 
@<TRIPOS>BOND
     1    1    2 1    
     2    1   67 1    
     3    1   68 1    
     4    1   69 1    
     5    2    3 2    
     6    2    4 am   BACKBONE|DICT|INTERRES
     7    4    5 1    
     8    4   70 1    
     9    5    6 1    
    10    5   65 1    
    11    5   71 1    
    12    6    7 1    
    13    6   72 1    
    14    6   73 1    
    15    7    8 1    
    16    8    9 1    
    17    8   74 1    
    18    8   75 1    
    19    9   10 ar   
    20    9   14 ar   
    21   10   11 ar   
    22   10   76 1    
    23   11   12 ar   
    24   11   48 1    
    25   12   13 ar   
    26   12   77 1    
    27   13   14 ar   
    28   13   15 1    
    29   14   78 1    
    30   15   16 1    
    31   15   79 1    
    32   15   80 1    
    33   16   17 1    
    34   17   18 1    
    35   17   81 1    
    36   17   82 1    
    37   18   19 1    
    38   18   22 1    
    39   18   83 1    
    40   19   20 am   BACKBONE|DICT|INTERRES
    41   19   21 2    
    42   20   84 1    
    43   20   85 1    
    44   22   23 am   BACKBONE|DICT|INTERRES
    45   22   86 1    
    46   23   24 2    
    47   23   25 1    
    48   25   26 1    
    49   25   27 1    
    50   25   87 1    
    51   26   88 1    
    52   26   89 1    
    53   26   90 1    
    54   27   28 am   BACKBONE|DICT|INTERRES
    55   27   91 1    
    56   28   29 2    
    57   28   30 1    
    58   30   31 1    
    59   30   32 1    
    60   30   92 1    
    61   31   93 1    
    62   31   94 1    
    63   31   95 1    
    64   32   33 am   BACKBONE|DICT|INTERRES
    65   32   96 1    
    66   33   34 2    
    67   33   35 1    
    68   35   36 1    
    69   35   37 1    
    70   35   97 1    
    71   36   98 1    
    72   36   99 1    
    73   36  100 1    
    74   37   38 am   BACKBONE|DICT|INTERRES
    75   37  101 1    
    76   38   39 2    
    77   38   40 1    
    78   40   41 1    
    79   40   42 1    
    80   40  102 1    
    81   41  103 1    
    82   41  104 1    
    83   41  105 1    
    84   42   43 am   BACKBONE|DICT|INTERRES
    85   42  106 1    
    86   43   44 2    
    87   43   45 1    
    88   45   46 1    
    89   45   49 1    
    90   45  107 1    
    91   46   47 1    
    92   46  108 1    
    93   46  109 1    
    94   47   48 1    
    95   48  110 1    
    96   48  111 1    
    97   49   50 am   BACKBONE|DICT|INTERRES
    98   49  112 1    
    99   50   51 2    
   100   50   52 1    
   101   52   53 1    
   102   52   54 1    
   103   52  113 1    
   104   53  114 1    
   105   53  115 1    
   106   53  116 1    
   107   54   55 am   BACKBONE|DICT|INTERRES
   108   54  117 1    
   109   55   56 2    
   110   55   57 1    
   111   57   58 1    
   112   57   59 1    
   113   57  118 1    
   114   58  119 1    
   115   58  120 1    
   116   58  121 1    
   117   59   60 am   BACKBONE|DICT|INTERRES
   118   59  122 1    
   119   60   61 2    
   120   60   62 1    
   121   62   63 1    
   122   62   64 1    
   123   62  123 1    
   124   63  124 1    
   125   63  125 1    
   126   63  126 1    
   127   64   65 am   BACKBONE|DICT|INTERRES
   128   64  127 1    
   129   65   66 2    
@<TRIPOS>SUBSTRUCTURE
     1 UNK         1 GROUP             0       ****    0 ROOT    
