@<TRIPOS>MOLECULE
3R135
127   129    1
SMALL
USER_CHARGES


@<TRIPOS>ATOM
      1 CA        -81.2338   23.9209  -71.3815 C.3       0 UNK        -0.1998 
      2 C         -82.4095   24.1307  -72.3333 C.2       0 UNK         0.4909 
      3 O         -83.1179   23.1664  -72.6166 O.2       0 UNK        -0.5240 
      4 N         -82.6878   25.3381  -72.8500 N.am      1 UNK        -0.4739 
      5 CA        -81.9995   26.6276  -72.6886 C.3       1 UNK         0.0864 
      6 C6        -81.8275   27.0568  -71.2062 C.3       11 UNK        -0.0881 
      7 S7        -81.6527   28.8614  -70.9874 S.3       11 UNK        -0.2682 
      8 C8        -80.3315   28.9627  -69.7356 C.3       11 UNK         0.0289 
      9 C9        -78.9666   28.5758  -70.2904 C.ar      11 UNK        -0.0687 
     10 C10       -78.4632   27.2862  -70.0929 C.ar      11 UNK        -0.0823 
     11 C11       -77.2080   26.9298  -70.5904 C.ar      11 UNK        -0.0830 
     12 C12       -76.4321   27.8883  -71.2492 C.ar      11 UNK        -0.1021 
     13 C13       -76.9266   29.1775  -71.4666 C.ar      11 UNK        -0.0753 
     14 C14       -78.1964   29.5144  -70.9847 C.ar      11 UNK        -0.0933 
     15 C15       -76.0906   30.2051  -72.2185 C.3       11 UNK         0.0166 
     16 S16       -75.6751   29.6420  -73.9019 S.3       11 UNK        -0.2615 
     17 C17       -75.3317   31.2271  -74.7462 C.3       11 UNK        -0.0865 
     18 CA        -73.8253   31.5181  -74.9697 C.3       10 UNK         0.0862 
     19 C         -73.0923   31.9158  -73.6531 C.2       10 UNK         0.5551 
     20 N         -72.0118   31.2557  -73.2532 N.am      10 UNK        -0.7319 
     21 O         -73.5090   32.8590  -72.9851 O.2       10 UNK        -0.5018 
     22 N         -73.1839   30.4461  -75.7436 N.am      10 UNK        -0.4509 
     23 C         -72.0966   30.5928  -76.5101 C.2       10 UNK         0.4899 
     24 O         -71.5645   31.6803  -76.7396 O.2       10 UNK        -0.4839 
     25 CA        -71.5034   29.2996  -77.1090 C.3       9 UNK         0.0222 
     26 CB        -70.0428   29.4753  -77.5750 C.3       9 UNK        -0.1966 
     27 N         -71.6180   28.1336  -76.2214 N.am      9 UNK        -0.4218 
     28 C         -71.1602   28.0239  -74.9616 C.2       9 UNK         0.5020 
     29 O         -70.5834   28.9323  -74.3622 O.2       9 UNK        -0.5274 
     30 CA        -71.4062   26.6967  -74.2221 C.3       8 UNK         0.0270 
     31 CB        -72.4712   26.8858  -73.1265 C.3       8 UNK        -0.1976 
     32 N         -71.8081   25.6115  -75.1227 N.am      8 UNK        -0.4313 
     33 C         -70.9488   24.9090  -75.8787 C.2       8 UNK         0.5041 
     34 O         -69.7275   25.0623  -75.8338 O.2       8 UNK        -0.5577 
     35 CA        -71.5245   23.8665  -76.8583 C.3       7 UNK         0.0284 
     36 CB        -71.3576   22.4480  -76.2890 C.3       7 UNK        -0.1958 
     37 N         -72.9312   24.0768  -77.2073 N.am      7 UNK        -0.4454 
     38 C         -73.4174   25.1254  -77.8862 C.2       7 UNK         0.5089 
     39 O         -72.7205   26.0364  -78.3339 O.2       7 UNK        -0.5125 
     40 CA        -74.9503   25.2028  -78.0177 C.3       6 UNK         0.0408 
     41 CB        -75.4228   24.5038  -79.3013 C.3       6 UNK        -0.1791 
     42 N         -75.6730   24.6471  -76.8658 N.am      6 UNK        -0.4762 
     43 C         -75.5409   25.0616  -75.5967 C.2       6 UNK         0.5007 
     44 O         -74.7224   25.9220  -75.2705 O.2       6 UNK        -0.5032 
     45 CA        -76.4291   24.4010  -74.5126 C.3       5 UNK         0.0783 
     46 C46       -76.4300   25.2398  -73.2116 C.3       11 UNK        -0.0857 
     47 S47       -77.2835   24.4464  -71.8113 S.3       11 UNK        -0.2512 
     48 C48       -76.7044   25.5013  -70.4403 C.3       11 UNK         0.0225 
     49 N         -77.7927   24.1400  -74.9880 N.am      5 UNK        -0.4615 
     50 C         -78.1641   23.1362  -75.7926 C.2       4 UNK         0.5053 
     51 O         -77.3845   22.2906  -76.2307 O.2       4 UNK        -0.5105 
     52 CA        -79.6337   23.1108  -76.2303 C.3       4 UNK         0.0263 
     53 CB        -80.5168   22.5048  -75.1292 C.3       4 UNK        -0.1981 
     54 N         -80.0940   24.4614  -76.5586 N.am      4 UNK        -0.4224 
     55 C         -79.8927   25.0552  -77.7448 C.2       3 UNK         0.4895 
     56 O         -79.3857   24.4903  -78.7145 O.2       3 UNK        -0.5091 
     57 CA        -80.3247   26.5269  -77.8836 C.3       3 UNK         0.0250 
     58 CB        -81.7689   26.6163  -78.4025 C.3       3 UNK        -0.1996 
     59 N         -80.2110   27.2850  -76.6357 N.am      3 UNK        -0.4254 
     60 C         -79.0525   27.6219  -76.0503 C.2       2 UNK         0.5004 
     61 O         -77.9484   27.3967  -76.5428 O.2       2 UNK        -0.5226 
     62 CA        -79.1401   28.3103  -74.6746 C.3       2 UNK         0.0269 
     63 CB        -79.1054   29.8379  -74.8455 C.3       2 UNK        -0.1926 
     64 N         -80.3206   27.9550  -73.8767 N.am      2 UNK        -0.4687 
     65 C         -80.7030   26.7193  -73.5270 C.2       1 UNK         0.5165 
     66 O         -80.1081   25.7011  -73.8891 O.2       1 UNK        -0.5079 
     67 H67       -80.3575   24.5004  -71.6614 H         1 UNK         0.0900 
     68 H68       -81.5191   24.1830  -70.3634 H         1 UNK         0.0900 
     69 H69       -80.9335   22.8735  -71.3827 H         1 UNK         0.0900 
     70 H70       -83.4739   25.3820  -73.4834 H         1 UNK         0.2959 
     71 H71       -82.6928   27.3369  -73.1446 H         1 UNK         0.1079 
     72 H72       -80.9875   26.5436  -70.7465 H         1 UNK         0.0837 
     73 H73       -82.7055   26.7577  -70.6314 H         1 UNK         0.0837 
     74 H74       -80.5920   28.3346  -68.8822 H         1 UNK         0.0685 
     75 H75       -80.2901   29.9844  -69.3552 H         1 UNK         0.0685 
     76 H76       -79.0509   26.5509  -69.5613 H         1 UNK         0.1434 
     77 H77       -75.4551   27.6230  -71.6297 H         1 UNK         0.1329 
     78 H78       -78.5878   30.5099  -71.1437 H         1 UNK         0.1335 
     79 H79       -75.1694   30.3995  -71.6675 H         1 UNK         0.0680 
     80 H80       -76.6273   31.1531  -72.2725 H         1 UNK         0.0680 
     81 H81       -75.8110   32.0532  -74.2182 H         1 UNK         0.1032 
     82 H82       -75.8306   31.1889  -75.7156 H         1 UNK         0.1032 
     83 H83       -73.7837   32.4178  -75.5868 H         1 UNK         0.0461 
     84 H84       -71.5544   31.5390  -72.4020 H         1 UNK         0.3453 
     85 H85       -71.6324   30.4829  -73.7908 H         1 UNK         0.3453 
     86 H86       -73.5515   29.5184  -75.5881 H         1 UNK         0.2984 
     87 H87       -72.1054   29.0695  -77.9892 H         1 UNK         0.0554 
     88 H88       -69.9628   30.2549  -78.3334 H         1 UNK         0.0847 
     89 H89       -69.6542   28.5569  -78.0152 H         1 UNK         0.0847 
     90 H90       -69.3870   29.7551  -76.7497 H         1 UNK         0.0847 
     91 H91       -72.0783   27.3282  -76.6294 H         1 UNK         0.3141 
     92 H92       -70.4708   26.4160  -73.7333 H         1 UNK         0.0743 
     93 H93       -72.1243   27.5887  -72.3680 H         1 UNK         0.0784 
     94 H94       -73.4028   27.2865  -73.5270 H         1 UNK         0.0784 
     95 H95       -72.6967   25.9475  -72.6197 H         1 UNK         0.0784 
     96 H96       -72.8086   25.4700  -75.2325 H         1 UNK         0.3213 
     97 H97       -70.9420   23.9367  -77.7797 H         1 UNK         0.0855 
     98 H98       -71.9339   22.3094  -75.3734 H         1 UNK         0.0814 
     99 H99       -70.3128   22.2441  -76.0494 H         1 UNK         0.0814 
    100 H100      -71.6755   21.6909  -77.0062 H         1 UNK         0.0814 
    101 H101      -73.5911   23.3894  -76.8731 H         1 UNK         0.3105 
    102 H102      -75.2187   26.2591  -78.0865 H         1 UNK         0.0547 
    103 H103      -75.2158   23.4332  -79.2792 H         1 UNK         0.0837 
    104 H104      -74.9207   24.9160  -80.1777 H         1 UNK         0.0837 
    105 H105      -76.4947   24.6355  -79.4520 H         1 UNK         0.0837 
    106 H106      -76.3357   23.9026  -77.0492 H         1 UNK         0.3020 
    107 H107      -75.9610   23.4410  -74.2842 H         1 UNK         0.1245 
    108 H108      -76.8943   26.2089  -73.3981 H         1 UNK         0.0781 
    109 H109      -75.4076   25.4423  -72.8869 H         1 UNK         0.0781 
    110 H110      -75.6143   25.4819  -70.3962 H         1 UNK         0.0836 
    111 H111      -77.0541   25.0800  -69.4966 H         1 UNK         0.0836 
    112 H112      -78.5071   24.7785  -74.6523 H         1 UNK         0.3022 
    113 H113      -79.7174   22.4773  -77.1162 H         1 UNK         0.0747 
    114 H114      -81.5712   22.5227  -75.4057 H         1 UNK         0.0793 
    115 H115      -80.2462   21.4645  -74.9446 H         1 UNK         0.0793 
    116 H116      -80.4078   23.0378  -74.1852 H         1 UNK         0.0793 
    117 H117      -80.4483   25.0139  -75.7862 H         1 UNK         0.3047 
    118 H118      -79.6671   26.9925  -78.6212 H         1 UNK         0.0822 
    119 H119      -82.0629   27.6504  -78.5832 H         1 UNK         0.0807 
    120 H120      -82.4802   26.1815  -77.6990 H         1 UNK         0.0807 
    121 H121      -81.8770   26.0813  -79.3472 H         1 UNK         0.0807 
    122 H122      -81.0705   27.5309  -76.1671 H         1 UNK         0.2946 
    123 H123      -78.2591   28.0064  -74.1061 H         1 UNK         0.1144 
    124 H124      -80.0072   30.2120  -75.3314 H         1 UNK         0.0793 
    125 H125      -78.2564   30.1442  -75.4578 H         1 UNK         0.0793 
    126 H126      -79.0049   30.3410  -73.8838 H         1 UNK         0.0793 
    127 H127      -80.8518   28.7319  -73.5078 H         1 UNK         0.2896 
@<TRIPOS>BOND
     1    1    2 1    
     2    1   67 1    
     3    1   68 1    
     4    1   69 1    
     5    2    3 2    
     6    2    4 am   BACKBONE|DICT|INTERRES
     7    4    5 1    
     8    4   70 1    
     9    5    6 1    
    10    5   65 1    
    11    5   71 1    
    12    6    7 1    
    13    6   72 1    
    14    6   73 1    
    15    7    8 1    
    16    8    9 1    
    17    8   74 1    
    18    8   75 1    
    19    9   10 ar   
    20    9   14 ar   
    21   10   11 ar   
    22   10   76 1    
    23   11   12 ar   
    24   11   48 1    
    25   12   13 ar   
    26   12   77 1    
    27   13   14 ar   
    28   13   15 1    
    29   14   78 1    
    30   15   16 1    
    31   15   79 1    
    32   15   80 1    
    33   16   17 1    
    34   17   18 1    
    35   17   81 1    
    36   17   82 1    
    37   18   19 1    
    38   18   22 1    
    39   18   83 1    
    40   19   20 am   BACKBONE|DICT|INTERRES
    41   19   21 2    
    42   20   84 1    
    43   20   85 1    
    44   22   23 am   BACKBONE|DICT|INTERRES
    45   22   86 1    
    46   23   24 2    
    47   23   25 1    
    48   25   26 1    
    49   25   27 1    
    50   25   87 1    
    51   26   88 1    
    52   26   89 1    
    53   26   90 1    
    54   27   28 am   BACKBONE|DICT|INTERRES
    55   27   91 1    
    56   28   29 2    
    57   28   30 1    
    58   30   31 1    
    59   30   32 1    
    60   30   92 1    
    61   31   93 1    
    62   31   94 1    
    63   31   95 1    
    64   32   33 am   BACKBONE|DICT|INTERRES
    65   32   96 1    
    66   33   34 2    
    67   33   35 1    
    68   35   36 1    
    69   35   37 1    
    70   35   97 1    
    71   36   98 1    
    72   36   99 1    
    73   36  100 1    
    74   37   38 am   BACKBONE|DICT|INTERRES
    75   37  101 1    
    76   38   39 2    
    77   38   40 1    
    78   40   41 1    
    79   40   42 1    
    80   40  102 1    
    81   41  103 1    
    82   41  104 1    
    83   41  105 1    
    84   42   43 am   BACKBONE|DICT|INTERRES
    85   42  106 1    
    86   43   44 2    
    87   43   45 1    
    88   45   46 1    
    89   45   49 1    
    90   45  107 1    
    91   46   47 1    
    92   46  108 1    
    93   46  109 1    
    94   47   48 1    
    95   48  110 1    
    96   48  111 1    
    97   49   50 am   BACKBONE|DICT|INTERRES
    98   49  112 1    
    99   50   51 2    
   100   50   52 1    
   101   52   53 1    
   102   52   54 1    
   103   52  113 1    
   104   53  114 1    
   105   53  115 1    
   106   53  116 1    
   107   54   55 am   BACKBONE|DICT|INTERRES
   108   54  117 1    
   109   55   56 2    
   110   55   57 1    
   111   57   58 1    
   112   57   59 1    
   113   57  118 1    
   114   58  119 1    
   115   58  120 1    
   116   58  121 1    
   117   59   60 am   BACKBONE|DICT|INTERRES
   118   59  122 1    
   119   60   61 2    
   120   60   62 1    
   121   62   63 1    
   122   62   64 1    
   123   62  123 1    
   124   63  124 1    
   125   63  125 1    
   126   63  126 1    
   127   64   65 am   BACKBONE|DICT|INTERRES
   128   64  127 1    
   129   65   66 2    
@<TRIPOS>SUBSTRUCTURE
     1 UNK         1 GROUP             0       ****    0 ROOT    
