@<TRIPOS>MOLECULE
3R135
127   129    1
SMALL
USER_CHARGES


@<TRIPOS>ATOM
      1 CA        -82.4059   31.4704  -75.6240 C.3       0 UNK        -0.1998 
      2 C         -81.7657   30.6540  -74.5115 C.2       0 UNK         0.4909 
      3 O         -81.0145   31.2029  -73.7081 O.2       0 UNK        -0.5240 
      4 N         -82.0602   29.3521  -74.4637 N.am      1 UNK        -0.4739 
      5 CA        -81.5349   28.3584  -73.5272 C.3       1 UNK         0.0864 
      6 C6        -82.1252   28.5292  -72.0992 C.3       11 UNK        -0.0881 
      7 S7        -81.2788   27.5621  -70.7970 S.3       11 UNK        -0.2682 
      8 C8        -80.0774   28.7504  -70.1121 C.3       11 UNK         0.0289 
      9 C9        -78.7672   28.7145  -70.8834 C.ar      11 UNK        -0.0687 
     10 C10       -77.7867   27.7712  -70.5608 C.ar      11 UNK        -0.0823 
     11 C11       -76.6000   27.6998  -71.2979 C.ar      11 UNK        -0.0830 
     12 C12       -76.4042   28.5768  -72.3686 C.ar      11 UNK        -0.1021 
     13 C13       -77.3599   29.5490  -72.6757 C.ar      11 UNK        -0.0753 
     14 C14       -78.5339   29.6184  -71.9221 C.ar      11 UNK        -0.0933 
     15 C15       -77.1383   30.5082  -73.8359 C.3       11 UNK         0.0166 
     16 S16       -76.3385   32.0657  -73.3250 S.3       11 UNK        -0.2615 
     17 C17       -74.6818   31.5200  -72.7782 C.3       11 UNK        -0.0865 
     18 CA        -73.7395   31.0991  -73.9431 C.3       10 UNK         0.0862 
     19 C         -72.9760   32.3173  -74.5463 C.2       10 UNK         0.5551 
     20 N         -71.6565   32.3995  -74.4217 N.am      10 UNK        -0.7319 
     21 O         -73.5881   33.1975  -75.1453 O.2       10 UNK        -0.5018 
     22 N         -72.8830   29.9671  -73.5442 N.am      10 UNK        -0.4509 
     23 C         -72.2757   29.1304  -74.3971 C.2       10 UNK         0.4899 
     24 O         -72.3859   29.2089  -75.6199 O.2       10 UNK        -0.4839 
     25 CA        -71.3681   28.0420  -73.8011 C.3       9 UNK         0.0222 
     26 CB        -71.4714   27.8855  -72.2688 C.3       9 UNK        -0.1966 
     27 N         -71.6639   26.7623  -74.4426 N.am      9 UNK        -0.4218 
     28 C         -70.7554   25.8560  -74.8202 C.2       9 UNK         0.5020 
     29 O         -69.5390   26.0063  -74.6907 O.2       9 UNK        -0.5274 
     30 CA        -71.2835   24.5416  -75.4209 C.3       8 UNK         0.0270 
     31 CB        -71.6811   23.5656  -74.3011 C.3       8 UNK        -0.1976 
     32 N         -72.4125   24.7166  -76.3385 N.am      8 UNK        -0.4313 
     33 C         -72.3293   25.2731  -77.5559 C.2       8 UNK         0.5041 
     34 O         -71.2856   25.7156  -78.0376 O.2       8 UNK        -0.5577 
     35 CA        -73.6232   25.3322  -78.3859 C.3       7 UNK         0.0284 
     36 CB        -73.9234   23.9713  -79.0355 C.3       7 UNK        -0.1958 
     37 N         -74.7638   25.7600  -77.5761 N.am      7 UNK        -0.4454 
     38 C         -75.0121   27.0339  -77.2441 C.2       7 UNK         0.5089 
     39 O         -74.4061   27.9912  -77.7236 O.2       7 UNK        -0.5125 
     40 CA        -76.1145   27.2972  -76.2012 C.3       6 UNK         0.0408 
     41 CB        -77.4287   27.7113  -76.8805 C.3       6 UNK        -0.1791 
     42 N         -76.3725   26.1647  -75.3105 N.am      6 UNK        -0.4762 
     43 C         -75.5099   25.6856  -74.4040 C.2       6 UNK         0.5007 
     44 O         -74.3936   26.1631  -74.2050 O.2       6 UNK        -0.5032 
     45 CA        -75.9493   24.4217  -73.6409 C.3       5 UNK         0.0783 
     46 C46       -76.9261   24.7522  -72.4844 C.3       11 UNK        -0.0857 
     47 S47       -76.0995   24.9679  -70.8749 S.3       11 UNK        -0.2512 
     48 C48       -75.5151   26.6932  -70.9355 C.3       11 UNK         0.0225 
     49 N         -76.5197   23.4325  -74.5573 N.am      5 UNK        -0.4615 
     50 C         -75.8293   22.7709  -75.4935 C.2       4 UNK         0.5053 
     51 O         -74.6217   22.9140  -75.6797 O.2       4 UNK        -0.5105 
     52 CA        -76.6328   21.8221  -76.3975 C.3       4 UNK         0.0263 
     53 CB        -76.8004   20.4495  -75.7273 C.3       4 UNK        -0.1981 
     54 N         -77.9488   22.3639  -76.7493 N.am      4 UNK        -0.4224 
     55 C         -78.1306   23.4325  -77.5381 C.2       3 UNK         0.4895 
     56 O         -77.2128   24.0468  -78.0803 O.2       3 UNK        -0.5091 
     57 CA        -79.5762   23.9218  -77.7258 C.3       3 UNK         0.0250 
     58 CB        -80.2866   23.1032  -78.8159 C.3       3 UNK        -0.1996 
     59 N         -80.3856   23.9200  -76.4999 N.am      3 UNK        -0.4254 
     60 C         -80.0853   24.5988  -75.3841 C.2       2 UNK         0.5004 
     61 O         -79.0226   25.1985  -75.2092 O.2       2 UNK        -0.5226 
     62 CA        -81.1346   24.6027  -74.2626 C.3       2 UNK         0.0269 
     63 CB        -80.8066   23.5444  -73.1986 C.3       2 UNK        -0.1926 
     64 N         -81.1705   25.9256  -73.6366 N.am      2 UNK        -0.4687 
     65 C         -81.8102   26.9778  -74.1591 C.2       1 UNK         0.5165 
     66 O         -82.5782   26.8885  -75.1241 O.2       1 UNK        -0.5079 
     67 H67       -83.0471   30.8606  -76.2603 H         1 UNK         0.0900 
     68 H68       -81.6354   31.9199  -76.2498 H         1 UNK         0.0900 
     69 H69       -83.0113   32.2712  -75.2003 H         1 UNK         0.0900 
     70 H70       -82.6566   28.9343  -75.1700 H         1 UNK         0.2959 
     71 H71       -80.4516   28.4818  -73.4924 H         1 UNK         0.1079 
     72 H72       -83.1823   28.2573  -72.0947 H         1 UNK         0.0837 
     73 H73       -82.0991   29.5791  -71.8056 H         1 UNK         0.0837 
     74 H74       -80.4975   29.7572  -70.1041 H         1 UNK         0.0685 
     75 H75       -79.8907   28.4939  -69.0683 H         1 UNK         0.0685 
     76 H76       -77.9530   27.0816  -69.7443 H         1 UNK         0.1434 
     77 H77       -75.4974   28.5168  -72.9555 H         1 UNK         0.1329 
     78 H78       -79.2767   30.3663  -72.1562 H         1 UNK         0.1335 
     79 H79       -76.5487   30.0321  -74.6173 H         1 UNK         0.0680 
     80 H80       -78.0984   30.7485  -74.2957 H         1 UNK         0.0680 
     81 H81       -74.8182   30.7066  -72.0670 H         1 UNK         0.1032 
     82 H82       -74.2342   32.3214  -72.1869 H         1 UNK         0.1032 
     83 H83       -74.3599   30.7222  -74.7574 H         1 UNK         0.0461 
     84 H84       -71.1425   31.6813  -73.9381 H         1 UNK         0.3453 
     85 H85       -71.1709   33.1878  -74.8198 H         1 UNK         0.3453 
     86 H86       -72.7125   29.8579  -72.5557 H         1 UNK         0.2984 
     87 H87       -70.3471   28.3438  -74.0426 H         1 UNK         0.0554 
     88 H88       -71.1729   28.7974  -71.7504 H         1 UNK         0.0847 
     89 H89       -72.4839   27.6320  -71.9546 H         1 UNK         0.0847 
     90 H90       -70.8115   27.0941  -71.9126 H         1 UNK         0.0847 
     91 H91       -72.6538   26.5539  -74.5726 H         1 UNK         0.3141 
     92 H92       -70.4661   24.0882  -75.9858 H         1 UNK         0.0743 
     93 H93       -70.8503   23.3988  -73.6141 H         1 UNK         0.0784 
     94 H94       -72.5191   23.9447  -73.7150 H         1 UNK         0.0784 
     95 H95       -71.9675   22.5942  -74.7047 H         1 UNK         0.0784 
     96 H96       -73.2980   24.3125  -76.0468 H         1 UNK         0.3213 
     97 H97       -73.4720   26.0570  -79.1891 H         1 UNK         0.0855 
     98 H98       -73.0947   23.6518  -79.6687 H         1 UNK         0.0814 
     99 H99       -74.8121   24.0217  -79.6649 H         1 UNK         0.0814 
    100 H100      -74.0856   23.1899  -78.2932 H         1 UNK         0.0814 
    101 H101      -75.3784   25.0396  -77.2186 H         1 UNK         0.3105 
    102 H102      -75.7694   28.1265  -75.5828 H         1 UNK         0.0547 
    103 H103      -77.2802   28.5787  -77.5249 H         1 UNK         0.0837 
    104 H104      -77.8297   26.9072  -77.4986 H         1 UNK         0.0837 
    105 H105      -78.1877   27.9782  -76.1447 H         1 UNK         0.0837 
    106 H106      -77.2936   25.7320  -75.3777 H         1 UNK         0.3020 
    107 H107      -75.0468   23.9711  -73.2211 H         1 UNK         0.1245 
    108 H108      -77.6046   23.9132  -72.3308 H         1 UNK         0.0781 
    109 H109      -77.5752   25.6004  -72.7109 H         1 UNK         0.0781 
    110 H110      -74.6819   26.7516  -71.6351 H         1 UNK         0.0836 
    111 H111      -75.1062   26.9569  -69.9593 H         1 UNK         0.0836 
    112 H112      -77.5208   23.3122  -74.5217 H         1 UNK         0.3022 
    113 H113      -76.0646   21.6841  -77.3201 H         1 UNK         0.0747 
    114 H114      -77.3005   19.7431  -76.3902 H         1 UNK         0.0793 
    115 H115      -75.8302   20.0203  -75.4724 H         1 UNK         0.0793 
    116 H116      -77.3802   20.5144  -74.8057 H         1 UNK         0.0793 
    117 H117      -78.7594   21.9143  -76.3490 H         1 UNK         0.3047 
    118 H118      -79.5187   24.9575  -78.0678 H         1 UNK         0.0822 
    119 H119      -81.2673   23.5184  -79.0488 H         1 UNK         0.0807 
    120 H120      -80.4237   22.0629  -78.5183 H         1 UNK         0.0807 
    121 H121      -79.7100   23.1037  -79.7423 H         1 UNK         0.0807 
    122 H122      -81.2727   23.4395  -76.5514 H         1 UNK         0.2946 
    123 H123      -82.1154   24.3766  -74.6880 H         1 UNK         0.1144 
    124 H124      -81.5783   23.5091  -72.4293 H         1 UNK         0.0793 
    125 H125      -79.8574   23.7467  -72.7050 H         1 UNK         0.0793 
    126 H126      -80.7436   22.5485  -73.6392 H         1 UNK         0.0793 
    127 H127      -80.5537   26.0753  -72.8501 H         1 UNK         0.2896 
@<TRIPOS>BOND
     1    1    2 1    
     2    1   67 1    
     3    1   68 1    
     4    1   69 1    
     5    2    3 2    
     6    2    4 am   BACKBONE|DICT|INTERRES
     7    4    5 1    
     8    4   70 1    
     9    5    6 1    
    10    5   65 1    
    11    5   71 1    
    12    6    7 1    
    13    6   72 1    
    14    6   73 1    
    15    7    8 1    
    16    8    9 1    
    17    8   74 1    
    18    8   75 1    
    19    9   10 ar   
    20    9   14 ar   
    21   10   11 ar   
    22   10   76 1    
    23   11   12 ar   
    24   11   48 1    
    25   12   13 ar   
    26   12   77 1    
    27   13   14 ar   
    28   13   15 1    
    29   14   78 1    
    30   15   16 1    
    31   15   79 1    
    32   15   80 1    
    33   16   17 1    
    34   17   18 1    
    35   17   81 1    
    36   17   82 1    
    37   18   19 1    
    38   18   22 1    
    39   18   83 1    
    40   19   20 am   BACKBONE|DICT|INTERRES
    41   19   21 2    
    42   20   84 1    
    43   20   85 1    
    44   22   23 am   BACKBONE|DICT|INTERRES
    45   22   86 1    
    46   23   24 2    
    47   23   25 1    
    48   25   26 1    
    49   25   27 1    
    50   25   87 1    
    51   26   88 1    
    52   26   89 1    
    53   26   90 1    
    54   27   28 am   BACKBONE|DICT|INTERRES
    55   27   91 1    
    56   28   29 2    
    57   28   30 1    
    58   30   31 1    
    59   30   32 1    
    60   30   92 1    
    61   31   93 1    
    62   31   94 1    
    63   31   95 1    
    64   32   33 am   BACKBONE|DICT|INTERRES
    65   32   96 1    
    66   33   34 2    
    67   33   35 1    
    68   35   36 1    
    69   35   37 1    
    70   35   97 1    
    71   36   98 1    
    72   36   99 1    
    73   36  100 1    
    74   37   38 am   BACKBONE|DICT|INTERRES
    75   37  101 1    
    76   38   39 2    
    77   38   40 1    
    78   40   41 1    
    79   40   42 1    
    80   40  102 1    
    81   41  103 1    
    82   41  104 1    
    83   41  105 1    
    84   42   43 am   BACKBONE|DICT|INTERRES
    85   42  106 1    
    86   43   44 2    
    87   43   45 1    
    88   45   46 1    
    89   45   49 1    
    90   45  107 1    
    91   46   47 1    
    92   46  108 1    
    93   46  109 1    
    94   47   48 1    
    95   48  110 1    
    96   48  111 1    
    97   49   50 am   BACKBONE|DICT|INTERRES
    98   49  112 1    
    99   50   51 2    
   100   50   52 1    
   101   52   53 1    
   102   52   54 1    
   103   52  113 1    
   104   53  114 1    
   105   53  115 1    
   106   53  116 1    
   107   54   55 am   BACKBONE|DICT|INTERRES
   108   54  117 1    
   109   55   56 2    
   110   55   57 1    
   111   57   58 1    
   112   57   59 1    
   113   57  118 1    
   114   58  119 1    
   115   58  120 1    
   116   58  121 1    
   117   59   60 am   BACKBONE|DICT|INTERRES
   118   59  122 1    
   119   60   61 2    
   120   60   62 1    
   121   62   63 1    
   122   62   64 1    
   123   62  123 1    
   124   63  124 1    
   125   63  125 1    
   126   63  126 1    
   127   64   65 am   BACKBONE|DICT|INTERRES
   128   64  127 1    
   129   65   66 2    
@<TRIPOS>SUBSTRUCTURE
     1 UNK         1 GROUP             0       ****    0 ROOT    
