@<TRIPOS>MOLECULE
3R135
127   129    1
SMALL
USER_CHARGES


@<TRIPOS>ATOM
      1 CA        -82.9824   27.8627  -71.5262 C.3       0 UNK        -0.1998 
      2 C         -82.1100   27.8020  -72.7700 C.2       0 UNK         0.4909 
      3 O         -81.5704   26.7421  -73.0845 O.2       0 UNK        -0.5240 
      4 N         -81.9833   28.9276  -73.4896 N.am      1 UNK        -0.4739 
      5 CA        -81.1348   29.1209  -74.6815 C.3       1 UNK         0.0864 
      6 C6        -79.6167   29.0492  -74.3537 C.3       11 UNK        -0.0881 
      7 S7        -79.0821   30.4510  -73.3143 S.3       11 UNK        -0.2682 
      8 C8        -78.9591   29.6969  -71.6622 C.3       11 UNK         0.0289 
      9 C9        -77.7712   28.7541  -71.5415 C.ar      11 UNK        -0.0687 
     10 C10       -77.9709   27.3769  -71.4117 C.ar      11 UNK        -0.0823 
     11 C11       -76.8798   26.5148  -71.2716 C.ar      11 UNK        -0.0830 
     12 C12       -75.5846   27.0403  -71.2626 C.ar      11 UNK        -0.1021 
     13 C13       -75.3659   28.4153  -71.3958 C.ar      11 UNK        -0.0753 
     14 C14       -76.4703   29.2660  -71.5364 C.ar      11 UNK        -0.0933 
     15 C15       -73.9240   28.9200  -71.4364 C.3       11 UNK         0.0166 
     16 S16       -73.6916   30.6995  -71.0952 S.3       11 UNK        -0.2615 
     17 C17       -72.2228   31.0442  -72.1276 C.3       11 UNK        -0.0865 
     18 CA        -72.5886   31.5890  -73.5353 C.3       10 UNK         0.0862 
     19 C         -71.3063   31.9645  -74.3234 C.2       10 UNK         0.5551 
     20 N         -70.7498   31.0804  -75.1417 N.am      10 UNK        -0.7319 
     21 O         -70.8129   33.0823  -74.1953 O.2       10 UNK        -0.5018 
     22 N         -73.4550   30.6557  -74.2753 N.am      10 UNK        -0.4509 
     23 C         -74.7209   30.9054  -74.6389 C.2       10 UNK         0.4899 
     24 O         -75.2803   31.9877  -74.4552 O.2       10 UNK        -0.4839 
     25 CA        -75.5244   29.7510  -75.2776 C.3       9 UNK         0.0222 
     26 CB        -76.5497   30.2535  -76.3179 C.3       9 UNK        -0.1966 
     27 N         -74.6976   28.6695  -75.8286 N.am      9 UNK        -0.4218 
     28 C         -73.8549   28.7454  -76.8688 C.2       9 UNK         0.5020 
     29 O         -73.6759   29.7637  -77.5395 O.2       9 UNK        -0.5274 
     30 CA        -73.0692   27.4601  -77.1946 C.3       8 UNK         0.0270 
     31 CB        -71.8926   27.7142  -78.1611 C.3       8 UNK        -0.1976 
     32 N         -72.5937   26.7266  -76.0123 N.am      8 UNK        -0.4313 
     33 C         -71.8138   27.1956  -75.0235 C.2       8 UNK         0.5041 
     34 O         -71.5507   28.3911  -74.8826 O.2       8 UNK        -0.5577 
     35 CA        -71.2298   26.1847  -74.0119 C.3       7 UNK         0.0284 
     36 CB        -71.5515   26.5799  -72.5625 C.3       7 UNK        -0.1958 
     37 N         -71.6720   24.8059  -74.2258 N.am      7 UNK        -0.4454 
     38 C         -71.2011   23.9670  -75.1576 C.2       7 UNK         0.5089 
     39 O         -70.2621   24.2309  -75.9081 O.2       7 UNK        -0.5125 
     40 CA        -71.9327   22.6177  -75.2994 C.3       6 UNK         0.0408 
     41 CB        -71.1479   21.5063  -74.5845 C.3       6 UNK        -0.1791 
     42 N         -73.3188   22.6279  -74.8057 N.am      6 UNK        -0.4762 
     43 C         -74.3101   23.3814  -75.3061 C.2       6 UNK         0.5007 
     44 O         -74.1509   24.1973  -76.2181 O.2       6 UNK        -0.5032 
     45 CA        -75.6900   23.2527  -74.6331 C.3       5 UNK         0.0783 
     46 C46       -75.8978   24.3900  -73.6027 C.3       11 UNK        -0.0857 
     47 S47       -77.4775   24.2177  -72.7074 S.3       11 UNK        -0.2512 
     48 C48       -77.1023   25.0171  -71.1164 C.3       11 UNK         0.0225 
     49 N         -76.7525   23.2348  -75.6398 N.am      5 UNK        -0.4615 
     50 C         -76.9959   22.2330  -76.4902 C.2       4 UNK         0.5053 
     51 O         -76.3540   21.1809  -76.5040 O.2       4 UNK        -0.5105 
     52 CA        -78.1817   22.4332  -77.4543 C.3       4 UNK         0.0263 
     53 CB        -78.3492   21.2622  -78.4412 C.3       4 UNK        -0.1981 
     54 N         -79.4398   22.6240  -76.7261 N.am      4 UNK        -0.4224 
     55 C         -79.8433   23.7740  -76.1716 C.2       3 UNK         0.4895 
     56 O         -79.1828   24.8154  -76.2024 O.2       3 UNK        -0.5091 
     57 CA        -81.1850   23.7373  -75.4219 C.3       3 UNK         0.0250 
     58 CB        -80.9585   23.5144  -73.9187 C.3       3 UNK        -0.1996 
     59 N         -81.9356   24.9779  -75.6173 N.am      3 UNK        -0.4254 
     60 C         -82.5566   25.3081  -76.7602 C.2       2 UNK         0.5004 
     61 O         -82.6234   24.5601  -77.7371 O.2       2 UNK        -0.5226 
     62 CA        -83.2358   26.6891  -76.8387 C.3       2 UNK         0.0269 
     63 CB        -84.7579   26.5502  -76.6700 C.3       2 UNK        -0.1926 
     64 N         -82.7340   27.6447  -75.8495 N.am      2 UNK        -0.4687 
     65 C         -81.5250   28.2238  -75.8833 C.2       1 UNK         0.5165 
     66 O         -80.7464   28.0886  -76.8282 O.2       1 UNK        -0.5079 
     67 H67       -82.3954   27.6014  -70.6462 H         1 UNK         0.0900 
     68 H68       -83.8050   27.1530  -71.6101 H         1 UNK         0.0900 
     69 H69       -83.4037   28.8556  -71.3705 H         1 UNK         0.0900 
     70 H70       -82.4732   29.7573  -73.1836 H         1 UNK         0.2959 
     71 H71       -81.3432   30.1335  -75.0314 H         1 UNK         0.1079 
     72 H72       -79.3579   28.0994  -73.8838 H         1 UNK         0.0837 
     73 H73       -79.0178   29.0985  -75.2632 H         1 UNK         0.0837 
     74 H74       -79.8912   29.1859  -71.4215 H         1 UNK         0.0685 
     75 H75       -78.8528   30.4935  -70.9246 H         1 UNK         0.0685 
     76 H76       -78.9746   26.9727  -71.4221 H         1 UNK         0.1434 
     77 H77       -74.7411   26.3724  -71.1565 H         1 UNK         0.1329 
     78 H78       -76.3315   30.3310  -71.6574 H         1 UNK         0.1335 
     79 H79       -73.5368   28.6920  -72.4284 H         1 UNK         0.0680 
     80 H80       -73.3147   28.3599  -70.7255 H         1 UNK         0.0680 
     81 H81       -71.6113   31.7730  -71.5920 H         1 UNK         0.1032 
     82 H82       -71.6098   30.1444  -72.2082 H         1 UNK         0.1032 
     83 H83       -73.1207   32.5294  -73.3800 H         1 UNK         0.0461 
     84 H84       -69.9232   31.3377  -75.6559 H         1 UNK         0.3453 
     85 H85       -71.0920   30.1224  -75.1819 H         1 UNK         0.3453 
     86 H86       -73.0304   29.7694  -74.5240 H         1 UNK         0.2984 
     87 H87       -76.0900   29.2991  -74.4616 H         1 UNK         0.0554 
     88 H88       -77.1006   29.4273  -76.7668 H         1 UNK         0.0847 
     89 H89       -76.0720   30.8141  -77.1217 H         1 UNK         0.0847 
     90 H90       -77.2813   30.9173  -75.8559 H         1 UNK         0.0847 
     91 H91       -74.7527   27.7861  -75.3418 H         1 UNK         0.3141 
     92 H92       -73.7732   26.7971  -77.7001 H         1 UNK         0.0743 
     93 H93       -71.1648   28.4059  -77.7350 H         1 UNK         0.0784 
     94 H94       -71.3721   26.7878  -78.4041 H         1 UNK         0.0784 
     95 H95       -72.2408   28.1445  -79.1010 H         1 UNK         0.0784 
     96 H96       -72.8323   25.7396  -76.0058 H         1 UNK         0.3213 
     97 H97       -70.1452   26.2223  -74.1347 H         1 UNK         0.0855 
     98 H98       -72.6175   26.4986  -72.3553 H         1 UNK         0.0814 
     99 H99       -71.2442   27.6051  -72.3525 H         1 UNK         0.0814 
    100 H100      -71.0255   25.9397  -71.8541 H         1 UNK         0.0814 
    101 H101      -72.4356   24.4809  -73.6521 H         1 UNK         0.3105 
    102 H102      -71.9655   22.3796  -76.3646 H         1 UNK         0.0547 
    103 H103      -70.1216   21.4553  -74.9513 H         1 UNK         0.0837 
    104 H104      -71.0999   21.6726  -73.5076 H         1 UNK         0.0837 
    105 H105      -71.5977   20.5281  -74.7551 H         1 UNK         0.0837 
    106 H106      -73.5256   21.9883  -74.0507 H         1 UNK         0.3020 
    107 H107      -75.7260   22.2975  -74.1040 H         1 UNK         0.1245 
    108 H108      -75.8838   25.3677  -74.0888 H         1 UNK         0.0781 
    109 H109      -75.0850   24.3940  -72.8742 H         1 UNK         0.0781 
    110 H110      -76.2342   24.5379  -70.6611 H         1 UNK         0.0836 
    111 H111      -77.9350   24.8445  -70.4329 H         1 UNK         0.0836 
    112 H112      -77.3549   24.0501  -75.6805 H         1 UNK         0.3022 
    113 H113      -77.9716   23.3305  -78.0407 H         1 UNK         0.0747 
    114 H114      -79.1570   21.4521  -79.1482 H         1 UNK         0.0793 
    115 H115      -77.4401   21.1104  -79.0248 H         1 UNK         0.0793 
    116 H116      -78.5667   20.3255  -77.9262 H         1 UNK         0.0793 
    117 H117      -80.0189   21.8036  -76.6165 H         1 UNK         0.3047 
    118 H118      -81.7842   22.9090  -75.8067 H         1 UNK         0.0822 
    119 H119      -80.4045   22.5928  -73.7353 H         1 UNK         0.0807 
    120 H120      -81.9036   23.4402  -73.3807 H         1 UNK         0.0807 
    121 H121      -80.3871   24.3309  -73.4758 H         1 UNK         0.0807 
    122 H122      -81.8807   25.6612  -74.8691 H         1 UNK         0.2946 
    123 H123      -83.0346   27.0896  -77.8351 H         1 UNK         0.1144 
    124 H124      -85.1723   25.8671  -77.4129 H         1 UNK         0.0793 
    125 H125      -85.2612   27.5087  -76.7984 H         1 UNK         0.0793 
    126 H126      -85.0212   26.1599  -75.6861 H         1 UNK         0.0793 
    127 H127      -83.3135   27.8135  -75.0399 H         1 UNK         0.2896 
@<TRIPOS>BOND
     1    1    2 1    
     2    1   67 1    
     3    1   68 1    
     4    1   69 1    
     5    2    3 2    
     6    2    4 am   BACKBONE|DICT|INTERRES
     7    4    5 1    
     8    4   70 1    
     9    5    6 1    
    10    5   65 1    
    11    5   71 1    
    12    6    7 1    
    13    6   72 1    
    14    6   73 1    
    15    7    8 1    
    16    8    9 1    
    17    8   74 1    
    18    8   75 1    
    19    9   10 ar   
    20    9   14 ar   
    21   10   11 ar   
    22   10   76 1    
    23   11   12 ar   
    24   11   48 1    
    25   12   13 ar   
    26   12   77 1    
    27   13   14 ar   
    28   13   15 1    
    29   14   78 1    
    30   15   16 1    
    31   15   79 1    
    32   15   80 1    
    33   16   17 1    
    34   17   18 1    
    35   17   81 1    
    36   17   82 1    
    37   18   19 1    
    38   18   22 1    
    39   18   83 1    
    40   19   20 am   BACKBONE|DICT|INTERRES
    41   19   21 2    
    42   20   84 1    
    43   20   85 1    
    44   22   23 am   BACKBONE|DICT|INTERRES
    45   22   86 1    
    46   23   24 2    
    47   23   25 1    
    48   25   26 1    
    49   25   27 1    
    50   25   87 1    
    51   26   88 1    
    52   26   89 1    
    53   26   90 1    
    54   27   28 am   BACKBONE|DICT|INTERRES
    55   27   91 1    
    56   28   29 2    
    57   28   30 1    
    58   30   31 1    
    59   30   32 1    
    60   30   92 1    
    61   31   93 1    
    62   31   94 1    
    63   31   95 1    
    64   32   33 am   BACKBONE|DICT|INTERRES
    65   32   96 1    
    66   33   34 2    
    67   33   35 1    
    68   35   36 1    
    69   35   37 1    
    70   35   97 1    
    71   36   98 1    
    72   36   99 1    
    73   36  100 1    
    74   37   38 am   BACKBONE|DICT|INTERRES
    75   37  101 1    
    76   38   39 2    
    77   38   40 1    
    78   40   41 1    
    79   40   42 1    
    80   40  102 1    
    81   41  103 1    
    82   41  104 1    
    83   41  105 1    
    84   42   43 am   BACKBONE|DICT|INTERRES
    85   42  106 1    
    86   43   44 2    
    87   43   45 1    
    88   45   46 1    
    89   45   49 1    
    90   45  107 1    
    91   46   47 1    
    92   46  108 1    
    93   46  109 1    
    94   47   48 1    
    95   48  110 1    
    96   48  111 1    
    97   49   50 am   BACKBONE|DICT|INTERRES
    98   49  112 1    
    99   50   51 2    
   100   50   52 1    
   101   52   53 1    
   102   52   54 1    
   103   52  113 1    
   104   53  114 1    
   105   53  115 1    
   106   53  116 1    
   107   54   55 am   BACKBONE|DICT|INTERRES
   108   54  117 1    
   109   55   56 2    
   110   55   57 1    
   111   57   58 1    
   112   57   59 1    
   113   57  118 1    
   114   58  119 1    
   115   58  120 1    
   116   58  121 1    
   117   59   60 am   BACKBONE|DICT|INTERRES
   118   59  122 1    
   119   60   61 2    
   120   60   62 1    
   121   62   63 1    
   122   62   64 1    
   123   62  123 1    
   124   63  124 1    
   125   63  125 1    
   126   63  126 1    
   127   64   65 am   BACKBONE|DICT|INTERRES
   128   64  127 1    
   129   65   66 2    
@<TRIPOS>SUBSTRUCTURE
     1 UNK         1 GROUP             0       ****    0 ROOT    
