@<TRIPOS>MOLECULE
3R135
127   129    1
SMALL
USER_CHARGES


@<TRIPOS>ATOM
      1 CA        -80.7891   32.0541  -75.2299 C.3       0 UNK        -0.1998 
      2 C         -81.1282   30.6140  -74.8740 C.2       0 UNK         0.4909 
      3 O         -82.1262   30.0851  -75.3657 O.2       0 UNK        -0.5240 
      4 N         -80.3035   29.9895  -74.0216 N.am      1 UNK        -0.4739 
      5 CA        -80.4065   28.5954  -73.5609 C.3       1 UNK         0.0864 
      6 C6        -81.7039   28.2839  -72.7511 C.3       11 UNK        -0.0881 
      7 S7        -82.1078   29.5420  -71.4853 S.3       11 UNK        -0.2682 
      8 C8        -81.3323   28.8638  -69.9828 C.3       11 UNK         0.0289 
      9 C9        -79.8213   28.7265  -70.1151 C.ar      11 UNK        -0.0687 
     10 C10       -79.2194   27.4723  -69.9730 C.ar      11 UNK        -0.0823 
     11 C11       -77.8355   27.3355  -70.1040 C.ar      11 UNK        -0.0830 
     12 C12       -77.0524   28.4642  -70.3461 C.ar      11 UNK        -0.1021 
     13 C13       -77.6411   29.7146  -70.5443 C.ar      11 UNK        -0.0753 
     14 C14       -79.0267   29.8440  -70.4018 C.ar      11 UNK        -0.0933 
     15 C15       -76.7843   30.9114  -70.9421 C.3       11 UNK         0.0166 
     16 S16       -76.0264   30.6905  -72.5934 S.3       11 UNK        -0.2615 
     17 C17       -74.5328   29.7134  -72.1960 C.3       11 UNK        -0.0865 
     18 CA        -73.2839   30.1586  -72.9965 C.3       10 UNK         0.0862 
     19 C         -71.9887   29.6322  -72.3200 C.2       10 UNK         0.5551 
     20 N         -71.2105   30.5054  -71.6960 N.am      10 UNK        -0.7319 
     21 O         -71.7169   28.4337  -72.3145 O.2       10 UNK        -0.5018 
     22 N         -73.3570   29.7099  -74.3925 N.am      10 UNK        -0.4509 
     23 C         -72.5633   30.1599  -75.3718 C.2       10 UNK         0.4899 
     24 O         -71.7984   31.1190  -75.2517 O.2       10 UNK        -0.4839 
     25 CA        -72.6311   29.3804  -76.6968 C.3       9 UNK         0.0222 
     26 CB        -71.7000   29.9449  -77.7903 C.3       9 UNK        -0.1966 
     27 N         -72.3957   27.9469  -76.4922 N.am      9 UNK        -0.4218 
     28 C         -71.2996   27.3444  -76.0039 C.2       9 UNK         0.5020 
     29 O         -70.2598   27.9325  -75.7041 O.2       9 UNK        -0.5274 
     30 CA        -71.3706   25.8162  -75.8095 C.3       8 UNK         0.0270 
     31 CB        -71.6495   25.4839  -74.3346 C.3       8 UNK        -0.1976 
     32 N         -72.3852   25.1656  -76.6439 N.am      8 UNK        -0.4313 
     33 C         -72.3078   25.0202  -77.9744 C.2       8 UNK         0.5041 
     34 O         -71.3172   25.3205  -78.6416 O.2       8 UNK        -0.5577 
     35 CA        -73.5705   24.4991  -78.6847 C.3       7 UNK         0.0284 
     36 CB        -73.6495   22.9654  -78.6214 C.3       7 UNK        -0.1958 
     37 N         -74.7992   25.0856  -78.1389 N.am      7 UNK        -0.4454 
     38 C         -75.1105   26.3895  -78.2028 C.2       7 UNK         0.5089 
     39 O         -74.4342   27.2296  -78.7937 O.2       7 UNK        -0.5125 
     40 CA        -76.3630   26.8429  -77.4428 C.3       6 UNK         0.0408 
     41 CB        -77.6122   26.6429  -78.3182 C.3       6 UNK        -0.1791 
     42 N         -76.5010   26.1342  -76.1672 N.am      6 UNK        -0.4762 
     43 C         -75.7976   26.4169  -75.0572 C.2       6 UNK         0.5007 
     44 O         -74.9906   27.3439  -74.9782 O.2       6 UNK        -0.5032 
     45 CA        -76.0086   25.4930  -73.8353 C.3       5 UNK         0.0783 
     46 C46       -77.1269   26.0562  -72.9296 C.3       11 UNK        -0.0857 
     47 S47       -77.5733   24.9669  -71.5255 S.3       11 UNK        -0.2512 
     48 C48       -77.1790   25.9647  -70.0502 C.3       11 UNK         0.0225 
     49 N         -76.2845   24.1111  -74.2274 N.am      5 UNK        -0.4615 
     50 C         -75.4381   23.2991  -74.8691 C.2       4 UNK         0.5053 
     51 O         -74.2939   23.6159  -75.1895 O.2       4 UNK        -0.5105 
     52 CA        -76.0009   21.9281  -75.2795 C.3       4 UNK         0.0263 
     53 CB        -75.7799   20.8991  -74.1602 C.3       4 UNK        -0.1981 
     54 N         -77.4273   21.9790  -75.6308 N.am      4 UNK        -0.4224 
     55 C         -77.9317   22.7118  -76.6358 C.2       3 UNK         0.4895 
     56 O         -77.2432   23.4222  -77.3678 O.2       3 UNK        -0.5091 
     57 CA        -79.4552   22.7052  -76.8185 C.3       3 UNK         0.0250 
     58 CB        -79.9023   21.4208  -77.5344 C.3       3 UNK        -0.1996 
     59 N         -80.1576   22.8189  -75.5335 N.am      3 UNK        -0.4254 
     60 C         -80.5950   23.9298  -74.9184 C.2       2 UNK         0.5004 
     61 O         -81.1200   23.8770  -73.8050 O.2       2 UNK        -0.5226 
     62 CA        -80.4882   25.3018  -75.6111 C.3       2 UNK         0.0269 
     63 CB        -81.6069   25.4871  -76.6574 C.3       2 UNK        -0.1926 
     64 N         -80.6126   26.3556  -74.6022 N.am      2 UNK        -0.4687 
     65 C         -80.1439   27.6043  -74.7219 C.2       1 UNK         0.5165 
     66 O         -79.4881   27.9748  -75.6970 O.2       1 UNK        -0.5079 
     67 H67       -81.6093   32.7132  -74.9467 H         1 UNK         0.0900 
     68 H68       -80.6311   32.1474  -76.3040 H         1 UNK         0.0900 
     69 H69       -79.8875   32.3985  -74.7234 H         1 UNK         0.0900 
     70 H70       -79.4901   30.4837  -73.6838 H         1 UNK         0.2959 
     71 H71       -79.5605   28.4551  -72.8877 H         1 UNK         0.1079 
     72 H72       -82.5607   28.2146  -73.4238 H         1 UNK         0.0837 
     73 H73       -81.6281   27.3139  -72.2571 H         1 UNK         0.0837 
     74 H74       -81.5531   29.5256  -69.1444 H         1 UNK         0.0685 
     75 H75       -81.7959   27.9045  -69.7472 H         1 UNK         0.0685 
     76 H76       -79.8257   26.5965  -69.7850 H         1 UNK         0.1434 
     77 H77       -75.9837   28.3502  -70.4343 H         1 UNK         0.1329 
     78 H78       -79.4961   30.8085  -70.5404 H         1 UNK         0.1335 
     79 H79       -76.0172   31.0888  -70.1874 H         1 UNK         0.0680 
     80 H80       -77.3936   31.8162  -70.9690 H         1 UNK         0.0680 
     81 H81       -74.7390   28.6561  -72.3724 H         1 UNK         0.1032 
     82 H82       -74.3368   29.8113  -71.1267 H         1 UNK         0.1032 
     83 H83       -73.2515   31.2504  -72.9946 H         1 UNK         0.0461 
     84 H84       -70.3755   30.1767  -71.2369 H         1 UNK         0.3453 
     85 H85       -71.4300   31.4895  -71.6927 H         1 UNK         0.3453 
     86 H86       -73.9403   28.8971  -74.5737 H         1 UNK         0.2984 
     87 H87       -73.6564   29.4725  -77.0582 H         1 UNK         0.0554 
     88 H88       -71.9444   30.9847  -78.0104 H         1 UNK         0.0847 
     89 H89       -71.7993   29.3844  -78.7200 H         1 UNK         0.0847 
     90 H90       -70.6522   29.9148  -77.4903 H         1 UNK         0.0847 
     91 H91       -73.1931   27.3566  -76.6839 H         1 UNK         0.3141 
     92 H92       -70.3956   25.4034  -76.0767 H         1 UNK         0.0743 
     93 H93       -72.6120   25.8802  -74.0088 H         1 UNK         0.0784 
     94 H94       -71.6527   24.4076  -74.1614 H         1 UNK         0.0784 
     95 H95       -70.8862   25.9163  -73.6859 H         1 UNK         0.0784 
     96 H96       -73.1977   24.7846  -76.1622 H         1 UNK         0.3213 
     97 H97       -73.5042   24.7920  -79.7349 H         1 UNK         0.0855 
     98 H98       -73.6820   22.6009  -77.5950 H         1 UNK         0.0814 
     99 H99       -72.7783   22.5134  -79.0973 H         1 UNK         0.0814 
    100 H100      -74.5329   22.5906  -79.1387 H         1 UNK         0.0814 
    101 H101      -75.4502   24.4580  -77.6793 H         1 UNK         0.3105 
    102 H102      -76.2671   27.9110  -77.2350 H         1 UNK         0.0547 
    103 H103      -77.5313   27.2229  -79.2384 H         1 UNK         0.0837 
    104 H104      -77.7537   25.6029  -78.6095 H         1 UNK         0.0837 
    105 H105      -78.5175   26.9751  -77.8148 H         1 UNK         0.0837 
    106 H106      -77.0804   25.3069  -76.1759 H         1 UNK         0.3020 
    107 H107      -75.0754   25.4918  -73.2674 H         1 UNK         0.1245 
    108 H108      -78.0373   26.1994  -73.5082 H         1 UNK         0.0781 
    109 H109      -76.8413   27.0455  -72.5760 H         1 UNK         0.0781 
    110 H110      -76.0951   26.0525  -69.9610 H         1 UNK         0.0836 
    111 H111      -77.5173   25.4337  -69.1593 H         1 UNK         0.0836 
    112 H112      -77.1896   23.7501  -73.9655 H         1 UNK         0.3022 
    113 H113      -75.4520   21.5974  -76.1635 H         1 UNK         0.0747 
    114 H114      -76.0990   19.9031  -74.4677 H         1 UNK         0.0793 
    115 H115      -74.7231   20.8314  -73.8972 H         1 UNK         0.0793 
    116 H116      -76.3251   21.1627  -73.2529 H         1 UNK         0.0793 
    117 H117      -78.0535   21.4205  -75.0698 H         1 UNK         0.3047 
    118 H118      -79.7039   23.5385  -77.4748 H         1 UNK         0.0822 
    119 H119      -80.9731   21.4361  -77.7389 H         1 UNK         0.0807 
    120 H120      -79.6876   20.5268  -76.9476 H         1 UNK         0.0807 
    121 H121      -79.3936   21.3110  -78.4935 H         1 UNK         0.0807 
    122 H122      -80.3066   21.9471  -75.0466 H         1 UNK         0.2946 
    123 H123      -79.5096   25.3821  -76.0864 H         1 UNK         0.1144 
    124 H124      -82.5911   25.5055  -76.1875 H         1 UNK         0.0793 
    125 H125      -81.6221   24.6846  -77.3941 H         1 UNK         0.0793 
    126 H126      -81.4842   26.4219  -77.2048 H         1 UNK         0.0793 
    127 H127      -81.0839   26.0591  -73.7562 H         1 UNK         0.2896 
@<TRIPOS>BOND
     1    1    2 1    
     2    1   67 1    
     3    1   68 1    
     4    1   69 1    
     5    2    3 2    
     6    2    4 am   BACKBONE|DICT|INTERRES
     7    4    5 1    
     8    4   70 1    
     9    5    6 1    
    10    5   65 1    
    11    5   71 1    
    12    6    7 1    
    13    6   72 1    
    14    6   73 1    
    15    7    8 1    
    16    8    9 1    
    17    8   74 1    
    18    8   75 1    
    19    9   10 ar   
    20    9   14 ar   
    21   10   11 ar   
    22   10   76 1    
    23   11   12 ar   
    24   11   48 1    
    25   12   13 ar   
    26   12   77 1    
    27   13   14 ar   
    28   13   15 1    
    29   14   78 1    
    30   15   16 1    
    31   15   79 1    
    32   15   80 1    
    33   16   17 1    
    34   17   18 1    
    35   17   81 1    
    36   17   82 1    
    37   18   19 1    
    38   18   22 1    
    39   18   83 1    
    40   19   20 am   BACKBONE|DICT|INTERRES
    41   19   21 2    
    42   20   84 1    
    43   20   85 1    
    44   22   23 am   BACKBONE|DICT|INTERRES
    45   22   86 1    
    46   23   24 2    
    47   23   25 1    
    48   25   26 1    
    49   25   27 1    
    50   25   87 1    
    51   26   88 1    
    52   26   89 1    
    53   26   90 1    
    54   27   28 am   BACKBONE|DICT|INTERRES
    55   27   91 1    
    56   28   29 2    
    57   28   30 1    
    58   30   31 1    
    59   30   32 1    
    60   30   92 1    
    61   31   93 1    
    62   31   94 1    
    63   31   95 1    
    64   32   33 am   BACKBONE|DICT|INTERRES
    65   32   96 1    
    66   33   34 2    
    67   33   35 1    
    68   35   36 1    
    69   35   37 1    
    70   35   97 1    
    71   36   98 1    
    72   36   99 1    
    73   36  100 1    
    74   37   38 am   BACKBONE|DICT|INTERRES
    75   37  101 1    
    76   38   39 2    
    77   38   40 1    
    78   40   41 1    
    79   40   42 1    
    80   40  102 1    
    81   41  103 1    
    82   41  104 1    
    83   41  105 1    
    84   42   43 am   BACKBONE|DICT|INTERRES
    85   42  106 1    
    86   43   44 2    
    87   43   45 1    
    88   45   46 1    
    89   45   49 1    
    90   45  107 1    
    91   46   47 1    
    92   46  108 1    
    93   46  109 1    
    94   47   48 1    
    95   48  110 1    
    96   48  111 1    
    97   49   50 am   BACKBONE|DICT|INTERRES
    98   49  112 1    
    99   50   51 2    
   100   50   52 1    
   101   52   53 1    
   102   52   54 1    
   103   52  113 1    
   104   53  114 1    
   105   53  115 1    
   106   53  116 1    
   107   54   55 am   BACKBONE|DICT|INTERRES
   108   54  117 1    
   109   55   56 2    
   110   55   57 1    
   111   57   58 1    
   112   57   59 1    
   113   57  118 1    
   114   58  119 1    
   115   58  120 1    
   116   58  121 1    
   117   59   60 am   BACKBONE|DICT|INTERRES
   118   59  122 1    
   119   60   61 2    
   120   60   62 1    
   121   62   63 1    
   122   62   64 1    
   123   62  123 1    
   124   63  124 1    
   125   63  125 1    
   126   63  126 1    
   127   64   65 am   BACKBONE|DICT|INTERRES
   128   64  127 1    
   129   65   66 2    
@<TRIPOS>SUBSTRUCTURE
     1 UNK         1 GROUP             0       ****    0 ROOT    
