@<TRIPOS>MOLECULE
3R135
127   129    1
SMALL
USER_CHARGES


@<TRIPOS>ATOM
      1 CA        -86.3483   29.3307  -72.9139 C.3       0 UNK        -0.1998 
      2 C         -84.9475   29.3168  -73.5075 C.2       0 UNK         0.4909 
      3 O         -84.6677   30.0747  -74.4371 O.2       0 UNK        -0.5240 
      4 N         -84.0686   28.4594  -72.9822 N.am      1 UNK        -0.4739 
      5 CA        -82.6832   28.2876  -73.4170 C.3       1 UNK         0.0864 
      6 C6        -81.7457   29.4174  -72.9069 C.3       11 UNK        -0.0881 
      7 S7        -81.6755   29.5805  -71.0841 S.3       11 UNK        -0.2682 
      8 C8        -80.1878   30.6075  -70.8496 C.3       11 UNK         0.0289 
      9 C9        -78.9318   29.9198  -71.3646 C.ar      11 UNK        -0.0687 
     10 C10       -78.2956   30.3898  -72.5169 C.ar      11 UNK        -0.0823 
     11 C11       -77.1759   29.7292  -73.0279 C.ar      11 UNK        -0.0830 
     12 C12       -76.6919   28.5901  -72.3756 C.ar      11 UNK        -0.1021 
     13 C13       -77.2940   28.1346  -71.1981 C.ar      11 UNK        -0.0753 
     14 C14       -78.4148   28.8049  -70.6987 C.ar      11 UNK        -0.0933 
     15 C15       -76.7613   26.9036  -70.4761 C.3       11 UNK         0.0166 
     16 S16       -75.2797   27.2712  -69.4800 S.3       11 UNK        -0.2615 
     17 C17       -73.9502   27.1608  -70.7270 C.3       11 UNK        -0.0865 
     18 CA        -73.3672   28.5545  -71.1228 C.3       10 UNK         0.0862 
     19 C         -72.1439   28.9956  -70.2641 C.2       10 UNK         0.5551 
     20 N         -72.1754   28.7538  -68.9607 N.am      10 UNK        -0.7319 
     21 O         -71.1863   29.5922  -70.7539 O.2       10 UNK        -0.5018 
     22 N         -73.1456   28.6760  -72.5726 N.am      10 UNK        -0.4509 
     23 C         -72.3673   27.8846  -73.3212 C.2       10 UNK         0.4899 
     24 O         -71.7312   26.9262  -72.8770 O.2       10 UNK        -0.4839 
     25 CA        -72.3680   28.2024  -74.8273 C.3       9 UNK         0.0222 
     26 CB        -71.7542   29.5839  -75.1415 C.3       9 UNK        -0.1966 
     27 N         -71.7742   27.1243  -75.6280 N.am      9 UNK        -0.4218 
     28 C         -70.4784   26.8137  -75.7817 C.2       9 UNK         0.5020 
     29 O         -69.5467   27.4900  -75.3420 O.2       9 UNK        -0.5274 
     30 CA        -70.1373   25.5161  -76.5419 C.3       8 UNK         0.0270 
     31 CB        -69.5519   24.4716  -75.5753 C.3       8 UNK        -0.1976 
     32 N         -71.2485   24.8983  -77.2736 N.am      8 UNK        -0.4313 
     33 C         -71.8083   25.3688  -78.3959 C.2       8 UNK         0.5041 
     34 O         -71.5132   26.4513  -78.9043 O.2       8 UNK        -0.5577 
     35 CA        -72.8497   24.4756  -79.0905 C.3       7 UNK         0.0284 
     36 CB        -72.9759   23.0557  -78.4973 C.3       7 UNK        -0.1958 
     37 N         -74.1552   25.1260  -79.0404 N.am      7 UNK        -0.4454 
     38 C         -74.9705   25.3173  -80.0862 C.2       7 UNK         0.5089 
     39 O         -74.6778   25.0050  -81.2416 O.2       7 UNK        -0.5125 
     40 CA        -76.3597   25.9328  -79.8159 C.3       6 UNK         0.0408 
     41 CB        -77.4764   24.9891  -80.2948 C.3       6 UNK        -0.1791 
     42 N         -76.5816   26.2366  -78.4007 N.am      6 UNK        -0.4762 
     43 C         -76.2452   27.3882  -77.8016 C.2       6 UNK         0.5007 
     44 O         -75.7722   28.3524  -78.4029 O.2       6 UNK        -0.5032 
     45 CA        -76.4138   27.4566  -76.2679 C.3       5 UNK         0.0783 
     46 C46       -77.6960   28.2176  -75.8457 C.3       11 UNK        -0.0857 
     47 S47       -77.4790   30.0264  -75.7906 S.3       11 UNK        -0.2512 
     48 C48       -76.4860   30.2576  -74.2780 C.3       11 UNK         0.0225 
     49 N         -76.3552   26.1383  -75.6298 N.am      5 UNK        -0.4615 
     50 C         -75.2676   25.3562  -75.5788 C.2       4 UNK         0.5053 
     51 O         -74.1833   25.6713  -76.0668 O.2       4 UNK        -0.5105 
     52 CA        -75.4125   23.9783  -74.9115 C.3       4 UNK         0.0263 
     53 CB        -74.9455   24.0504  -73.4496 C.3       4 UNK        -0.1981 
     54 N         -76.7748   23.4398  -74.9655 N.am      4 UNK        -0.4224 
     55 C         -77.4425   23.1488  -76.0926 C.2       3 UNK         0.4895 
     56 O         -76.9595   23.2530  -77.2201 O.2       3 UNK        -0.5091 
     57 CA        -78.9149   22.7272  -75.9393 C.3       3 UNK         0.0250 
     58 CB        -79.0277   21.1976  -75.8410 C.3       3 UNK        -0.1996 
     59 N         -79.5989   23.3447  -74.7942 N.am      3 UNK        -0.4254 
     60 C         -79.7719   24.6636  -74.6268 C.2       2 UNK         0.5004 
     61 O         -79.3309   25.5185  -75.3991 O.2       2 UNK        -0.5226 
     62 CA        -80.5093   25.1068  -73.3604 C.3       2 UNK         0.0269 
     63 CB        -79.5336   25.1990  -72.1744 C.3       2 UNK        -0.1926 
     64 N         -81.1071   26.4179  -73.6009 N.am      2 UNK        -0.4687 
     65 C         -82.2123   26.8792  -73.0065 C.2       1 UNK         0.5165 
     66 O         -82.8543   26.2374  -72.1681 O.2       1 UNK        -0.5079 
     67 H67       -86.5795   30.3209  -72.5221 H         1 UNK         0.0900 
     68 H68       -86.4530   28.6120  -72.1013 H         1 UNK         0.0900 
     69 H69       -87.0835   29.0863  -73.6801 H         1 UNK         0.0900 
     70 H70       -84.3384   27.8206  -72.2435 H         1 UNK         0.2959 
     71 H71       -82.6758   28.3055  -74.5094 H         1 UNK         0.1079 
     72 H72       -80.7405   29.2566  -73.2976 H         1 UNK         0.0837 
     73 H73       -82.0664   30.3756  -73.3181 H         1 UNK         0.0837 
     74 H74       -80.3370   31.5693  -71.3428 H         1 UNK         0.0685 
     75 H75       -80.0699   30.8225  -69.7866 H         1 UNK         0.0685 
     76 H76       -78.6823   31.2591  -73.0313 H         1 UNK         0.1434 
     77 H77       -75.8415   28.0614  -72.7796 H         1 UNK         0.1329 
     78 H78       -78.9026   28.4475  -69.8022 H         1 UNK         0.1335 
     79 H79       -77.5276   26.5039  -69.8101 H         1 UNK         0.0680 
     80 H80       -76.5503   26.1084  -71.1906 H         1 UNK         0.0680 
     81 H81       -74.3451   26.6451  -71.6021 H         1 UNK         0.1032 
     82 H82       -73.1670   26.4971  -70.3553 H         1 UNK         0.1032 
     83 H83       -74.1271   29.3111  -70.9232 H         1 UNK         0.0461 
     84 H84       -71.4023   29.0458  -68.3836 H         1 UNK         0.3453 
     85 H85       -72.9700   28.2894  -68.5469 H         1 UNK         0.3453 
     86 H86       -73.5809   29.4761  -73.0057 H         1 UNK         0.2984 
     87 H87       -73.4117   28.2353  -75.1360 H         1 UNK         0.0554 
     88 H88       -71.6870   29.7538  -76.2161 H         1 UNK         0.0847 
     89 H89       -70.7541   29.6919  -74.7206 H         1 UNK         0.0847 
     90 H90       -72.3615   30.3891  -74.7274 H         1 UNK         0.0847 
     91 H91       -72.4559   26.4629  -75.9919 H         1 UNK         0.3141 
     92 H92       -69.3654   25.7725  -77.2707 H         1 UNK         0.0743 
     93 H93       -70.2808   24.1678  -74.8225 H         1 UNK         0.0784 
     94 H94       -69.2194   23.5787  -76.1051 H         1 UNK         0.0784 
     95 H95       -68.6858   24.8703  -75.0449 H         1 UNK         0.0784 
     96 H96       -71.5777   24.0118  -76.9200 H         1 UNK         0.3213 
     97 H97       -72.5146   24.3767  -80.1251 H         1 UNK         0.0855 
     98 H98       -73.3394   23.0692  -77.4694 H         1 UNK         0.0814 
     99 H99       -72.0205   22.5292  -78.5149 H         1 UNK         0.0814 
    100 H100      -73.6764   22.4558  -79.0789 H         1 UNK         0.0814 
    101 H101      -74.4408   25.4624  -78.1281 H         1 UNK         0.3105 
    102 H102      -76.4260   26.8531  -80.3998 H         1 UNK         0.0547 
    103 H103      -77.3923   24.7929  -81.3644 H         1 UNK         0.0837 
    104 H104      -77.4381   24.0262  -79.7844 H         1 UNK         0.0837 
    105 H105      -78.4626   25.4209  -80.1241 H         1 UNK         0.0837 
    106 H106      -76.9275   25.4737  -77.8305 H         1 UNK         0.3020 
    107 H107      -75.5485   28.0071  -75.9010 H         1 UNK         0.1245 
    108 H108      -78.0271   27.8977  -74.8569 H         1 UNK         0.0781 
    109 H109      -78.5304   27.9828  -76.5096 H         1 UNK         0.0781 
    110 H110      -76.2919   31.3237  -74.1511 H         1 UNK         0.0836 
    111 H111      -75.5091   29.7925  -74.4085 H         1 UNK         0.0836 
    112 H112      -77.2363   25.7844  -75.2751 H         1 UNK         0.3022 
    113 H113      -74.7603   23.2862  -75.4474 H         1 UNK         0.0747 
    114 H114      -74.9362   23.0636  -72.9864 H         1 UNK         0.0793 
    115 H115      -73.9312   24.4480  -73.3812 H         1 UNK         0.0793 
    116 H116      -75.5896   24.6959  -72.8530 H         1 UNK         0.0793 
    117 H117      -77.2523   23.3156  -74.0850 H         1 UNK         0.3047 
    118 H118      -79.4357   23.0503  -76.8433 H         1 UNK         0.0822 
    119 H119      -80.0692   20.8752  -75.8368 H         1 UNK         0.0807 
    120 H120      -78.5523   20.8131  -74.9377 H         1 UNK         0.0807 
    121 H121      -78.5459   20.7154  -76.6931 H         1 UNK         0.0807 
    122 H122      -79.9798   22.7120  -74.1047 H         1 UNK         0.2946 
    123 H123      -81.2943   24.3790  -73.1411 H         1 UNK         0.1144 
    124 H124      -80.0378   25.5346  -71.2679 H         1 UNK         0.0793 
    125 H125      -78.7266   25.9006  -72.3852 H         1 UNK         0.0793 
    126 H126      -79.0815   24.2313  -71.9546 H         1 UNK         0.0793 
    127 H127      -80.6464   26.9573  -74.3233 H         1 UNK         0.2896 
@<TRIPOS>BOND
     1    1    2 1    
     2    1   67 1    
     3    1   68 1    
     4    1   69 1    
     5    2    3 2    
     6    2    4 am   BACKBONE|DICT|INTERRES
     7    4    5 1    
     8    4   70 1    
     9    5    6 1    
    10    5   65 1    
    11    5   71 1    
    12    6    7 1    
    13    6   72 1    
    14    6   73 1    
    15    7    8 1    
    16    8    9 1    
    17    8   74 1    
    18    8   75 1    
    19    9   10 ar   
    20    9   14 ar   
    21   10   11 ar   
    22   10   76 1    
    23   11   12 ar   
    24   11   48 1    
    25   12   13 ar   
    26   12   77 1    
    27   13   14 ar   
    28   13   15 1    
    29   14   78 1    
    30   15   16 1    
    31   15   79 1    
    32   15   80 1    
    33   16   17 1    
    34   17   18 1    
    35   17   81 1    
    36   17   82 1    
    37   18   19 1    
    38   18   22 1    
    39   18   83 1    
    40   19   20 am   BACKBONE|DICT|INTERRES
    41   19   21 2    
    42   20   84 1    
    43   20   85 1    
    44   22   23 am   BACKBONE|DICT|INTERRES
    45   22   86 1    
    46   23   24 2    
    47   23   25 1    
    48   25   26 1    
    49   25   27 1    
    50   25   87 1    
    51   26   88 1    
    52   26   89 1    
    53   26   90 1    
    54   27   28 am   BACKBONE|DICT|INTERRES
    55   27   91 1    
    56   28   29 2    
    57   28   30 1    
    58   30   31 1    
    59   30   32 1    
    60   30   92 1    
    61   31   93 1    
    62   31   94 1    
    63   31   95 1    
    64   32   33 am   BACKBONE|DICT|INTERRES
    65   32   96 1    
    66   33   34 2    
    67   33   35 1    
    68   35   36 1    
    69   35   37 1    
    70   35   97 1    
    71   36   98 1    
    72   36   99 1    
    73   36  100 1    
    74   37   38 am   BACKBONE|DICT|INTERRES
    75   37  101 1    
    76   38   39 2    
    77   38   40 1    
    78   40   41 1    
    79   40   42 1    
    80   40  102 1    
    81   41  103 1    
    82   41  104 1    
    83   41  105 1    
    84   42   43 am   BACKBONE|DICT|INTERRES
    85   42  106 1    
    86   43   44 2    
    87   43   45 1    
    88   45   46 1    
    89   45   49 1    
    90   45  107 1    
    91   46   47 1    
    92   46  108 1    
    93   46  109 1    
    94   47   48 1    
    95   48  110 1    
    96   48  111 1    
    97   49   50 am   BACKBONE|DICT|INTERRES
    98   49  112 1    
    99   50   51 2    
   100   50   52 1    
   101   52   53 1    
   102   52   54 1    
   103   52  113 1    
   104   53  114 1    
   105   53  115 1    
   106   53  116 1    
   107   54   55 am   BACKBONE|DICT|INTERRES
   108   54  117 1    
   109   55   56 2    
   110   55   57 1    
   111   57   58 1    
   112   57   59 1    
   113   57  118 1    
   114   58  119 1    
   115   58  120 1    
   116   58  121 1    
   117   59   60 am   BACKBONE|DICT|INTERRES
   118   59  122 1    
   119   60   61 2    
   120   60   62 1    
   121   62   63 1    
   122   62   64 1    
   123   62  123 1    
   124   63  124 1    
   125   63  125 1    
   126   63  126 1    
   127   64   65 am   BACKBONE|DICT|INTERRES
   128   64  127 1    
   129   65   66 2    
@<TRIPOS>SUBSTRUCTURE
     1 UNK         1 GROUP             0       ****    0 ROOT    
