@<TRIPOS>MOLECULE
3R135
127   129    1
SMALL
USER_CHARGES


@<TRIPOS>ATOM
      1 CA        -83.1229   30.7447  -74.8154 C.3       0 UNK        -0.1998 
      2 C         -82.1834   29.6311  -74.3783 C.2       0 UNK         0.4909 
      3 O         -81.2897   29.2525  -75.1354 O.2       0 UNK        -0.5240 
      4 N         -82.3740   29.1111  -73.1596 N.am      1 UNK        -0.4739 
      5 CA        -81.5856   28.0191  -72.5795 C.3       1 UNK         0.0864 
      6 C6        -81.7810   27.9012  -71.0434 C.3       11 UNK        -0.0881 
      7 S7        -81.5723   29.4920  -70.1647 S.3       11 UNK        -0.2682 
      8 C8        -79.9057   29.3404  -69.4386 C.3       11 UNK         0.0289 
      9 C9        -78.8055   29.1562  -70.4781 C.ar      11 UNK        -0.0687 
     10 C10       -77.8540   28.1485  -70.3089 C.ar      11 UNK        -0.0823 
     11 C11       -76.8479   27.9547  -71.2579 C.ar      11 UNK        -0.0830 
     12 C12       -76.7994   28.7740  -72.3907 C.ar      11 UNK        -0.1021 
     13 C13       -77.7339   29.8047  -72.5672 C.ar      11 UNK        -0.0753 
     14 C14       -78.7227   29.9923  -71.5964 C.ar      11 UNK        -0.0933 
     15 C15       -77.7534   30.7259  -73.7895 C.3       11 UNK         0.0166 
     16 S16       -76.3486   30.5747  -74.9438 S.3       11 UNK        -0.2615 
     17 C17       -75.0376   31.4896  -74.0731 C.3       11 UNK        -0.0865 
     18 CA        -73.6286   31.1542  -74.6354 C.3       10 UNK         0.0862 
     19 C         -72.6333   32.3059  -74.3209 C.2       10 UNK         0.5551 
     20 N         -72.5133   33.2815  -75.2105 N.am      10 UNK        -0.7319 
     21 O         -72.0068   32.3436  -73.2631 O.2       10 UNK        -0.5018 
     22 N         -73.1292   29.8609  -74.1377 N.am      10 UNK        -0.4509 
     23 C         -72.0574   29.2257  -74.6346 C.2       10 UNK         0.4899 
     24 O         -71.5109   29.5336  -75.6944 O.2       10 UNK        -0.4839 
     25 CA        -71.4382   28.1027  -73.7875 C.3       9 UNK         0.0222 
     26 CB        -71.9055   28.0860  -72.3173 C.3       9 UNK        -0.1966 
     27 N         -71.7041   26.8010  -74.3953 N.am      9 UNK        -0.4218 
     28 C         -70.7899   25.8454  -74.6058 C.2       9 UNK         0.5020 
     29 O         -69.5854   25.9837  -74.3850 O.2       9 UNK        -0.5274 
     30 CA        -71.2987   24.4854  -75.1161 C.3       8 UNK         0.0270 
     31 CB        -71.8458   23.6453  -73.9500 C.3       8 UNK        -0.1976 
     32 N         -72.3183   24.5944  -76.1609 N.am      8 UNK        -0.4313 
     33 C         -72.0742   24.9745  -77.4230 C.2       8 UNK         0.5041 
     34 O         -70.9539   25.2572  -77.8502 O.2       8 UNK        -0.5577 
     35 CA        -73.2822   25.0505  -78.3742 C.3       7 UNK         0.0284 
     36 CB        -73.6220   23.6630  -78.9417 C.3       7 UNK        -0.1958 
     37 N         -74.4634   25.6252  -77.7286 N.am      7 UNK        -0.4454 
     38 C         -74.5620   26.9072  -77.3513 C.2       7 UNK         0.5089 
     39 O         -73.7191   27.7635  -77.6160 O.2       7 UNK        -0.5125 
     40 CA        -75.7876   27.2994  -76.5118 C.3       6 UNK         0.0408 
     41 CB        -76.9576   27.7365  -77.4053 C.3       6 UNK        -0.1791 
     42 N         -76.2333   26.2471  -75.5985 N.am      6 UNK        -0.4762 
     43 C         -75.5215   25.7843  -74.5625 C.2       6 UNK         0.5007 
     44 O         -74.4150   26.2188  -74.2490 O.2       6 UNK        -0.5032 
     45 CA        -76.1242   24.6005  -73.7832 C.3       5 UNK         0.0783 
     46 C46       -77.1826   25.0680  -72.7492 C.3       11 UNK        -0.0857 
     47 S47       -76.5082   25.1918  -71.0618 S.3       11 UNK        -0.2512 
     48 C48       -75.8022   26.8697  -71.0458 C.3       11 UNK         0.0225 
     49 N         -76.6615   23.5949  -74.7009 N.am      5 UNK        -0.4615 
     50 C         -75.9200   22.8355  -75.5175 C.2       4 UNK         0.5053 
     51 O         -74.6906   22.8698  -75.5545 O.2       4 UNK        -0.5105 
     52 CA        -76.6857   21.9159  -76.4835 C.3       4 UNK         0.0263 
     53 CB        -77.0141   20.5758  -75.8071 C.3       4 UNK        -0.1981 
     54 N         -77.9191   22.5310  -76.9833 N.am      4 UNK        -0.4224 
     55 C         -77.9498   23.6013  -77.7904 C.2       3 UNK         0.4895 
     56 O         -76.9429   24.1465  -78.2413 O.2       3 UNK        -0.5091 
     57 CA        -79.3338   24.1926  -78.1074 C.3       3 UNK         0.0250 
     58 CB        -79.9942   23.4314  -79.2680 C.3       3 UNK        -0.1996 
     59 N         -80.2456   24.2293  -76.9560 N.am      3 UNK        -0.4254 
     60 C         -80.0099   24.8984  -75.8188 C.2       2 UNK         0.5004 
     61 O         -78.9593   25.4985  -75.5801 O.2       2 UNK        -0.5226 
     62 CA        -81.1104   24.8715  -74.7544 C.3       2 UNK         0.0269 
     63 CB        -81.0351   23.5906  -73.9046 C.3       2 UNK        -0.1926 
     64 N         -80.9462   26.0485  -73.9041 N.am      2 UNK        -0.4687 
     65 C         -81.9397   26.6962  -73.2888 C.2       1 UNK         0.5165 
     66 O         -83.1083   26.3003  -73.2791 O.2       1 UNK        -0.5079 
     67 H67       -83.8505   30.9913  -74.0423 H         1 UNK         0.0900 
     68 H68       -82.5547   31.6455  -75.0456 H         1 UNK         0.0900 
     69 H69       -83.6670   30.4461  -75.7110 H         1 UNK         0.0900 
     70 H70       -83.1261   29.4548  -72.5799 H         1 UNK         0.2959 
     71 H71       -80.5323   28.2359  -72.7678 H         1 UNK         0.1079 
     72 H72       -81.0898   27.1647  -70.6289 H         1 UNK         0.0837 
     73 H73       -82.7835   27.5353  -70.8125 H         1 UNK         0.0837 
     74 H74       -79.6924   30.2410  -68.8617 H         1 UNK         0.0685 
     75 H75       -79.9119   28.5128  -68.7274 H         1 UNK         0.0685 
     76 H76       -77.8945   27.5069  -69.4390 H         1 UNK         0.1434 
     77 H77       -76.0294   28.6001  -73.1286 H         1 UNK         0.1329 
     78 H78       -79.4532   30.7796  -71.7254 H         1 UNK         0.1335 
     79 H79       -78.6653   30.5164  -74.3510 H         1 UNK         0.0680 
     80 H80       -77.8259   31.7644  -73.4625 H         1 UNK         0.0680 
     81 H81       -75.2673   32.5505  -74.1940 H         1 UNK         0.1032 
     82 H82       -75.0884   31.2918  -73.0008 H         1 UNK         0.1032 
     83 H83       -73.7023   31.0784  -75.7228 H         1 UNK         0.0461 
     84 H84       -73.0305   33.2640  -76.0759 H         1 UNK         0.3453 
     85 H85       -71.8850   34.0462  -75.0185 H         1 UNK         0.3453 
     86 H86       -73.4958   29.5570  -73.2494 H         1 UNK         0.2984 
     87 H87       -70.3642   28.2994  -73.7833 H         1 UNK         0.0554 
     88 H88       -71.3520   27.3435  -71.7422 H         1 UNK         0.0847 
     89 H89       -72.9634   27.8446  -72.2281 H         1 UNK         0.0847 
     90 H90       -71.7368   29.0507  -71.8364 H         1 UNK         0.0847 
     91 H91       -72.6857   26.5893  -74.5736 H         1 UNK         0.3141 
     92 H92       -70.4441   23.9521  -75.5380 H         1 UNK         0.0743 
     93 H93       -72.7201   24.1090  -73.4921 H         1 UNK         0.0784 
     94 H94       -72.1323   22.6468  -74.2811 H         1 UNK         0.0784 
     95 H95       -71.0939   23.5245  -73.1690 H         1 UNK         0.0784 
     96 H96       -73.2605   24.3113  -75.9114 H         1 UNK         0.3213 
     97 H97       -73.0069   25.6985  -79.2093 H         1 UNK         0.0855 
     98 H98       -73.9097   22.9624  -78.1577 H         1 UNK         0.0814 
     99 H99       -72.7643   23.2350  -79.4623 H         1 UNK         0.0814 
    100 H100      -74.4423   23.7177  -79.6577 H         1 UNK         0.0814 
    101 H101      -75.2538   25.0087  -77.5661 H         1 UNK         0.3105 
    102 H102      -75.4821   28.1453  -75.8986 H         1 UNK         0.0547 
    103 H103      -76.6614   28.5571  -78.0598 H         1 UNK         0.0837 
    104 H104      -77.3084   26.9210  -78.0378 H         1 UNK         0.0837 
    105 H105      -77.8006   28.0859  -76.8084 H         1 UNK         0.0837 
    106 H106      -77.1678   25.8708  -75.7501 H         1 UNK         0.3020 
    107 H107      -75.2989   24.1196  -73.2525 H         1 UNK         0.1245 
    108 H108      -77.9897   24.3383  -72.6825 H         1 UNK         0.0781 
    109 H109      -77.6727   25.9998  -73.0379 H         1 UNK         0.0781 
    110 H110      -75.0182   26.9308  -71.7980 H         1 UNK         0.0836 
    111 H111      -75.3114   27.0342  -70.0856 H         1 UNK         0.0836 
    112 H112      -77.6659   23.5544  -74.7841 H         1 UNK         0.3022 
    113 H113      -76.0351   21.7176  -77.3381 H         1 UNK         0.0747 
    114 H114      -77.4898   19.8857  -76.5043 H         1 UNK         0.0793 
    115 H115      -76.1067   20.0913  -75.4432 H         1 UNK         0.0793 
    116 H116      -77.6802   20.7036  -74.9528 H         1 UNK         0.0793 
    117 H117      -78.7940   22.1396  -76.6660 H         1 UNK         0.3047 
    118 H118      -79.1761   25.2246  -78.4276 H         1 UNK         0.0822 
    119 H119      -80.9236   23.9093  -79.5784 H         1 UNK         0.0807 
    120 H120      -80.2201   22.3984  -79.0005 H         1 UNK         0.0807 
    121 H121      -79.3393   23.4063  -80.1404 H         1 UNK         0.0807 
    122 H122      -81.1280   23.7499  -77.0658 H         1 UNK         0.2946 
    123 H123      -82.0771   24.9208  -75.2617 H         1 UNK         0.1144 
    124 H124      -81.8272   23.5669  -73.1559 H         1 UNK         0.0793 
    125 H125      -80.0827   23.5047  -73.3824 H         1 UNK         0.0793 
    126 H126      -81.1514   22.6999  -74.5231 H         1 UNK         0.0793 
    127 H127      -80.0213   26.4594  -73.9490 H         1 UNK         0.2896 
@<TRIPOS>BOND
     1    1    2 1    
     2    1   67 1    
     3    1   68 1    
     4    1   69 1    
     5    2    3 2    
     6    2    4 am   BACKBONE|DICT|INTERRES
     7    4    5 1    
     8    4   70 1    
     9    5    6 1    
    10    5   65 1    
    11    5   71 1    
    12    6    7 1    
    13    6   72 1    
    14    6   73 1    
    15    7    8 1    
    16    8    9 1    
    17    8   74 1    
    18    8   75 1    
    19    9   10 ar   
    20    9   14 ar   
    21   10   11 ar   
    22   10   76 1    
    23   11   12 ar   
    24   11   48 1    
    25   12   13 ar   
    26   12   77 1    
    27   13   14 ar   
    28   13   15 1    
    29   14   78 1    
    30   15   16 1    
    31   15   79 1    
    32   15   80 1    
    33   16   17 1    
    34   17   18 1    
    35   17   81 1    
    36   17   82 1    
    37   18   19 1    
    38   18   22 1    
    39   18   83 1    
    40   19   20 am   BACKBONE|DICT|INTERRES
    41   19   21 2    
    42   20   84 1    
    43   20   85 1    
    44   22   23 am   BACKBONE|DICT|INTERRES
    45   22   86 1    
    46   23   24 2    
    47   23   25 1    
    48   25   26 1    
    49   25   27 1    
    50   25   87 1    
    51   26   88 1    
    52   26   89 1    
    53   26   90 1    
    54   27   28 am   BACKBONE|DICT|INTERRES
    55   27   91 1    
    56   28   29 2    
    57   28   30 1    
    58   30   31 1    
    59   30   32 1    
    60   30   92 1    
    61   31   93 1    
    62   31   94 1    
    63   31   95 1    
    64   32   33 am   BACKBONE|DICT|INTERRES
    65   32   96 1    
    66   33   34 2    
    67   33   35 1    
    68   35   36 1    
    69   35   37 1    
    70   35   97 1    
    71   36   98 1    
    72   36   99 1    
    73   36  100 1    
    74   37   38 am   BACKBONE|DICT|INTERRES
    75   37  101 1    
    76   38   39 2    
    77   38   40 1    
    78   40   41 1    
    79   40   42 1    
    80   40  102 1    
    81   41  103 1    
    82   41  104 1    
    83   41  105 1    
    84   42   43 am   BACKBONE|DICT|INTERRES
    85   42  106 1    
    86   43   44 2    
    87   43   45 1    
    88   45   46 1    
    89   45   49 1    
    90   45  107 1    
    91   46   47 1    
    92   46  108 1    
    93   46  109 1    
    94   47   48 1    
    95   48  110 1    
    96   48  111 1    
    97   49   50 am   BACKBONE|DICT|INTERRES
    98   49  112 1    
    99   50   51 2    
   100   50   52 1    
   101   52   53 1    
   102   52   54 1    
   103   52  113 1    
   104   53  114 1    
   105   53  115 1    
   106   53  116 1    
   107   54   55 am   BACKBONE|DICT|INTERRES
   108   54  117 1    
   109   55   56 2    
   110   55   57 1    
   111   57   58 1    
   112   57   59 1    
   113   57  118 1    
   114   58  119 1    
   115   58  120 1    
   116   58  121 1    
   117   59   60 am   BACKBONE|DICT|INTERRES
   118   59  122 1    
   119   60   61 2    
   120   60   62 1    
   121   62   63 1    
   122   62   64 1    
   123   62  123 1    
   124   63  124 1    
   125   63  125 1    
   126   63  126 1    
   127   64   65 am   BACKBONE|DICT|INTERRES
   128   64  127 1    
   129   65   66 2    
@<TRIPOS>SUBSTRUCTURE
     1 UNK         1 GROUP             0       ****    0 ROOT    
