@<TRIPOS>MOLECULE
3R135
127   129    1
SMALL
USER_CHARGES


@<TRIPOS>ATOM
      1 CA        -79.0390   21.2796  -69.9876 C.3       0 UNK        -0.1998 
      2 C         -79.8702   22.5530  -69.9400 C.2       0 UNK         0.4909 
      3 O         -80.2748   22.9816  -68.8589 O.2       0 UNK        -0.5240 
      4 N         -80.1284   23.1593  -71.1022 N.am      1 UNK        -0.4739 
      5 CA        -80.9234   24.3729  -71.2705 C.3       1 UNK         0.0864 
      6 C6        -80.0910   25.6486  -70.9752 C.3       11 UNK        -0.0881 
      7 S7        -81.1020   27.1095  -70.5683 S.3       11 UNK        -0.2682 
      8 C8        -81.0173   28.0763  -72.1194 C.3       11 UNK         0.0289 
      9 C9        -79.6642   28.6909  -72.4901 C.ar      11 UNK        -0.0687 
     10 C10       -79.5771   29.3900  -73.7003 C.ar      11 UNK        -0.0823 
     11 C11       -78.3928   30.0282  -74.0804 C.ar      11 UNK        -0.0830 
     12 C12       -77.2822   29.9578  -73.2376 C.ar      11 UNK        -0.1021 
     13 C13       -77.3347   29.2334  -72.0466 C.ar      11 UNK        -0.0753 
     14 C14       -78.5285   28.6113  -71.6703 C.ar      11 UNK        -0.0933 
     15 C15       -76.1014   29.1647  -71.1603 C.3       11 UNK         0.0166 
     16 S16       -74.7639   28.2082  -71.9501 S.3       11 UNK        -0.2615 
     17 C17       -73.3056   29.1945  -71.4660 C.3       11 UNK        -0.0865 
     18 CA        -72.8415   30.1362  -72.6076 C.3       10 UNK         0.0862 
     19 C         -71.8377   31.1951  -72.0764 C.2       10 UNK         0.5551 
     20 N         -72.3261   32.3536  -71.6556 N.am      10 UNK        -0.7319 
     21 O         -70.6329   30.9608  -72.0013 O.2       10 UNK        -0.5018 
     22 N         -72.2843   29.3668  -73.7262 N.am      10 UNK        -0.4509 
     23 C         -72.0327   29.8342  -74.9525 C.2       10 UNK         0.4899 
     24 O         -72.3507   30.9629  -75.3268 O.2       10 UNK        -0.4839 
     25 CA        -71.3429   28.8848  -75.9557 C.3       9 UNK         0.0222 
     26 CB        -69.8380   29.2014  -76.0623 C.3       9 UNK        -0.1966 
     27 N         -71.5772   27.4457  -75.7302 N.am      9 UNK        -0.4218 
     28 C         -71.1625   26.6792  -74.7087 C.2       9 UNK         0.5020 
     29 O         -70.4864   27.1056  -73.7723 O.2       9 UNK        -0.5274 
     30 CA        -71.6164   25.2107  -74.6720 C.3       8 UNK         0.0270 
     31 CB        -72.4511   24.9472  -73.4048 C.3       8 UNK        -0.1976 
     32 N         -72.4112   24.8140  -75.8363 N.am      8 UNK        -0.4313 
     33 C         -71.9252   24.2253  -76.9357 C.2       8 UNK         0.5041 
     34 O         -70.7238   24.0472  -77.1388 O.2       8 UNK        -0.5577 
     35 CA        -72.9419   23.7364  -77.9775 C.3       7 UNK         0.0284 
     36 CB        -73.5907   22.4194  -77.5184 C.3       7 UNK        -0.1958 
     37 N         -73.9913   24.7253  -78.2404 N.am      7 UNK        -0.4454 
     38 C         -74.2991   25.2033  -79.4554 C.2       7 UNK         0.5089 
     39 O         -73.7156   24.8727  -80.4887 O.2       7 UNK        -0.5125 
     40 CA        -75.4604   26.2137  -79.5587 C.3       6 UNK         0.0408 
     41 CB        -76.7273   25.5167  -80.0788 C.3       6 UNK        -0.1791 
     42 N         -75.7697   26.8991  -78.3012 N.am      6 UNK        -0.4762 
     43 C         -74.9514   27.7751  -77.6977 C.2       6 UNK         0.5007 
     44 O         -73.8731   28.1265  -78.1754 O.2       6 UNK        -0.5032 
     45 CA        -75.3607   28.3245  -76.3129 C.3       5 UNK         0.0783 
     46 C46       -75.9167   29.7689  -76.4370 C.3       11 UNK        -0.0857 
     47 S47       -77.7140   29.8573  -76.7826 S.3       11 UNK        -0.2512 
     48 C48       -78.3288   30.8349  -75.3717 C.3       11 UNK         0.0225 
     49 N         -76.2497   27.4436  -75.5473 N.am      5 UNK        -0.4615 
     50 C         -76.0487   26.1488  -75.2722 C.2       4 UNK         0.5053 
     51 O         -75.0194   25.5402  -75.5627 O.2       4 UNK        -0.5105 
     52 CA        -77.2229   25.3738  -74.6540 C.3       4 UNK         0.0263 
     53 CB        -77.0509   25.2686  -73.1324 C.3       4 UNK        -0.1981 
     54 N         -78.5491   25.9171  -74.9890 N.am      4 UNK        -0.4224 
     55 C         -79.0249   26.0429  -76.2394 C.2       3 UNK         0.4895 
     56 O         -78.3768   25.7404  -77.2425 O.2       3 UNK        -0.5091 
     57 CA        -80.4554   26.5806  -76.3892 C.3       3 UNK         0.0250 
     58 CB        -80.9457   26.5746  -77.8534 C.3       3 UNK        -0.1996 
     59 N         -81.3565   25.8049  -75.5395 N.am      3 UNK        -0.4254 
     60 C         -82.5760   26.1778  -75.1382 C.2       2 UNK         0.5004 
     61 O         -83.1019   27.2474  -75.4460 O.2       2 UNK        -0.5226 
     62 CA        -83.3251   25.2145  -74.1991 C.3       2 UNK         0.0269 
     63 CB        -83.6933   23.8940  -74.9066 C.3       2 UNK        -0.1926 
     64 N         -82.6310   24.9824  -72.9220 N.am      2 UNK        -0.4687 
     65 C         -81.4618   24.3619  -72.7100 C.2       1 UNK         0.5165 
     66 O         -80.7908   23.8293  -73.5996 O.2       1 UNK        -0.5079 
     67 H67       -78.1339   21.4003  -69.3929 H         1 UNK         0.0900 
     68 H68       -78.7441   21.0235  -71.0051 H         1 UNK         0.0900 
     69 H69       -79.6074   20.4447  -69.5786 H         1 UNK         0.0900 
     70 H70       -79.8187   22.7567  -71.9793 H         1 UNK         0.2959 
     71 H71       -81.7728   24.3188  -70.5853 H         1 UNK         0.1079 
     72 H72       -79.4435   25.4789  -70.1135 H         1 UNK         0.0837 
     73 H73       -79.4206   25.8819  -71.8000 H         1 UNK         0.0837 
     74 H74       -81.3495   27.4472  -72.9413 H         1 UNK         0.0685 
     75 H75       -81.7465   28.8841  -72.0428 H         1 UNK         0.0685 
     76 H76       -80.4480   29.4623  -74.3383 H         1 UNK         0.1434 
     77 H77       -76.3668   30.4692  -73.4948 H         1 UNK         0.1329 
     78 H78       -78.5639   28.0812  -70.7299 H         1 UNK         0.1335 
     79 H79       -75.7726   30.1849  -70.9580 H         1 UNK         0.0680 
     80 H80       -76.3347   28.7175  -70.1930 H         1 UNK         0.0680 
     81 H81       -72.5013   28.5119  -71.1848 H         1 UNK         0.1032 
     82 H82       -73.5394   29.7569  -70.5598 H         1 UNK         0.1032 
     83 H83       -73.7161   30.6709  -72.9848 H         1 UNK         0.0461 
     84 H84       -71.6927   33.0486  -71.2920 H         1 UNK         0.3453 
     85 H85       -73.3128   32.5542  -71.7049 H         1 UNK         0.3453 
     86 H86       -71.8902   28.4627  -73.4922 H         1 UNK         0.2984 
     87 H87       -71.7817   29.1026  -76.9296 H         1 UNK         0.0554 
     88 H88       -69.3516   28.5745  -76.8096 H         1 UNK         0.0847 
     89 H89       -69.3207   29.0574  -75.1134 H         1 UNK         0.0847 
     90 H90       -69.6806   30.2394  -76.3583 H         1 UNK         0.0847 
     91 H91       -72.1384   26.9913  -76.4373 H         1 UNK         0.3141 
     92 H92       -70.7159   24.5953  -74.6173 H         1 UNK         0.0743 
     93 H93       -73.3396   25.5793  -73.3664 H         1 UNK         0.0784 
     94 H94       -72.7769   23.9083  -73.3521 H         1 UNK         0.0784 
     95 H95       -71.8718   25.1485  -72.5026 H         1 UNK         0.0784 
     96 H96       -73.4185   24.9548  -75.7444 H         1 UNK         0.3213 
     97 H97       -72.3781   23.5291  -78.8896 H         1 UNK         0.0855 
     98 H98       -74.1881   22.5542  -76.6156 H         1 UNK         0.0814 
     99 H99       -72.8335   21.6648  -77.3008 H         1 UNK         0.0814 
    100 H100      -74.2417   22.0106  -78.2913 H         1 UNK         0.0814 
    101 H101      -74.5178   25.0637  -77.4417 H         1 UNK         0.3105 
    102 H102      -75.1691   26.9723  -80.2881 H         1 UNK         0.0547 
    103 H103      -76.5502   25.0599  -81.0533 H         1 UNK         0.0837 
    104 H104      -77.0570   24.7257  -79.4040 H         1 UNK         0.0837 
    105 H105      -77.5509   26.2213  -80.1957 H         1 UNK         0.0837 
    106 H106      -76.6412   26.6411  -77.8463 H         1 UNK         0.3020 
    107 H107      -74.4365   28.3764  -75.7364 H         1 UNK         0.1245 
    108 H108      -75.3933   30.3310  -77.2136 H         1 UNK         0.0781 
    109 H109      -75.6906   30.3165  -75.5254 H         1 UNK         0.0781 
    110 H110      -79.3226   31.2109  -75.6197 H         1 UNK         0.0836 
    111 H111      -77.7032   31.7186  -75.2365 H         1 UNK         0.0836 
    112 H112      -77.1322   27.8557  -75.2797 H         1 UNK         0.3022 
    113 H113      -77.1788   24.3629  -75.0647 H         1 UNK         0.0747 
    114 H114      -77.7603   24.5618  -72.7033 H         1 UNK         0.0793 
    115 H115      -76.0529   24.9090  -72.8763 H         1 UNK         0.0793 
    116 H116      -77.1784   26.2341  -72.6431 H         1 UNK         0.0793 
    117 H117      -79.1363   26.1916  -74.2164 H         1 UNK         0.3047 
    118 H118      -80.4416   27.6136  -76.0368 H         1 UNK         0.0822 
    119 H119      -81.9358   27.0201  -77.9487 H         1 UNK         0.0807 
    120 H120      -80.9934   25.5620  -78.2554 H         1 UNK         0.0807 
    121 H121      -80.2747   27.1503  -78.4926 H         1 UNK         0.0807 
    122 H122      -80.9922   24.9275  -75.1743 H         1 UNK         0.2946 
    123 H123      -84.2636   25.7087  -73.9401 H         1 UNK         0.1144 
    124 H124      -84.2795   24.0877  -75.8059 H         1 UNK         0.0793 
    125 H125      -84.2954   23.2553  -74.2605 H         1 UNK         0.0793 
    126 H126      -82.8153   23.3249  -75.2125 H         1 UNK         0.0793 
    127 H127      -83.0759   25.4120  -72.1214 H         1 UNK         0.2896 
@<TRIPOS>BOND
     1    1    2 1    
     2    1   67 1    
     3    1   68 1    
     4    1   69 1    
     5    2    3 2    
     6    2    4 am   BACKBONE|DICT|INTERRES
     7    4    5 1    
     8    4   70 1    
     9    5    6 1    
    10    5   65 1    
    11    5   71 1    
    12    6    7 1    
    13    6   72 1    
    14    6   73 1    
    15    7    8 1    
    16    8    9 1    
    17    8   74 1    
    18    8   75 1    
    19    9   10 ar   
    20    9   14 ar   
    21   10   11 ar   
    22   10   76 1    
    23   11   12 ar   
    24   11   48 1    
    25   12   13 ar   
    26   12   77 1    
    27   13   14 ar   
    28   13   15 1    
    29   14   78 1    
    30   15   16 1    
    31   15   79 1    
    32   15   80 1    
    33   16   17 1    
    34   17   18 1    
    35   17   81 1    
    36   17   82 1    
    37   18   19 1    
    38   18   22 1    
    39   18   83 1    
    40   19   20 am   BACKBONE|DICT|INTERRES
    41   19   21 2    
    42   20   84 1    
    43   20   85 1    
    44   22   23 am   BACKBONE|DICT|INTERRES
    45   22   86 1    
    46   23   24 2    
    47   23   25 1    
    48   25   26 1    
    49   25   27 1    
    50   25   87 1    
    51   26   88 1    
    52   26   89 1    
    53   26   90 1    
    54   27   28 am   BACKBONE|DICT|INTERRES
    55   27   91 1    
    56   28   29 2    
    57   28   30 1    
    58   30   31 1    
    59   30   32 1    
    60   30   92 1    
    61   31   93 1    
    62   31   94 1    
    63   31   95 1    
    64   32   33 am   BACKBONE|DICT|INTERRES
    65   32   96 1    
    66   33   34 2    
    67   33   35 1    
    68   35   36 1    
    69   35   37 1    
    70   35   97 1    
    71   36   98 1    
    72   36   99 1    
    73   36  100 1    
    74   37   38 am   BACKBONE|DICT|INTERRES
    75   37  101 1    
    76   38   39 2    
    77   38   40 1    
    78   40   41 1    
    79   40   42 1    
    80   40  102 1    
    81   41  103 1    
    82   41  104 1    
    83   41  105 1    
    84   42   43 am   BACKBONE|DICT|INTERRES
    85   42  106 1    
    86   43   44 2    
    87   43   45 1    
    88   45   46 1    
    89   45   49 1    
    90   45  107 1    
    91   46   47 1    
    92   46  108 1    
    93   46  109 1    
    94   47   48 1    
    95   48  110 1    
    96   48  111 1    
    97   49   50 am   BACKBONE|DICT|INTERRES
    98   49  112 1    
    99   50   51 2    
   100   50   52 1    
   101   52   53 1    
   102   52   54 1    
   103   52  113 1    
   104   53  114 1    
   105   53  115 1    
   106   53  116 1    
   107   54   55 am   BACKBONE|DICT|INTERRES
   108   54  117 1    
   109   55   56 2    
   110   55   57 1    
   111   57   58 1    
   112   57   59 1    
   113   57  118 1    
   114   58  119 1    
   115   58  120 1    
   116   58  121 1    
   117   59   60 am   BACKBONE|DICT|INTERRES
   118   59  122 1    
   119   60   61 2    
   120   60   62 1    
   121   62   63 1    
   122   62   64 1    
   123   62  123 1    
   124   63  124 1    
   125   63  125 1    
   126   63  126 1    
   127   64   65 am   BACKBONE|DICT|INTERRES
   128   64  127 1    
   129   65   66 2    
@<TRIPOS>SUBSTRUCTURE
     1 UNK         1 GROUP             0       ****    0 ROOT    
