@<TRIPOS>MOLECULE
3R135
127   129    1
SMALL
USER_CHARGES


@<TRIPOS>ATOM
      1 CA        -79.5811   21.3327  -72.4930 C.3       0 UNK        -0.1998 
      2 C         -80.3633   22.6226  -72.2970 C.2       0 UNK         0.4909 
      3 O         -81.5679   22.6535  -72.5483 O.2       0 UNK        -0.5240 
      4 N         -79.6869   23.6876  -71.8461 N.am      1 UNK        -0.4739 
      5 CA        -80.2562   25.0215  -71.6277 C.3       1 UNK         0.0864 
      6 C6        -79.3501   25.8689  -70.6939 C.3       11 UNK        -0.0881 
      7 S7        -80.2854   26.8738  -69.4919 S.3       11 UNK        -0.2682 
      8 C8        -80.8223   28.3183  -70.4750 C.3       11 UNK         0.0289 
      9 C9        -79.7146   29.0943  -71.1887 C.ar      11 UNK        -0.0687 
     10 C10       -80.0397   29.8022  -72.3495 C.ar      11 UNK        -0.0823 
     11 C11       -79.0655   30.5166  -73.0527 C.ar      11 UNK        -0.0830 
     12 C12       -77.7487   30.5219  -72.5844 C.ar      11 UNK        -0.1021 
     13 C13       -77.4036   29.8050  -71.4368 C.ar      11 UNK        -0.0753 
     14 C14       -78.3926   29.1205  -70.7257 C.ar      11 UNK        -0.0933 
     15 C15       -75.9516   29.7190  -71.0032 C.3       11 UNK         0.0166 
     16 S16       -75.1388   28.3420  -71.8676 S.3       11 UNK        -0.2615 
     17 C17       -73.4288   28.4941  -71.2542 C.3       11 UNK        -0.0865 
     18 CA        -72.5307   29.4101  -72.1289 C.3       10 UNK         0.0862 
     19 C         -71.0806   29.4338  -71.5588 C.2       10 UNK         0.5551 
     20 N         -70.0888   28.8538  -72.2268 N.am      10 UNK        -0.7319 
     21 O         -70.8562   29.9886  -70.4860 O.2       10 UNK        -0.5018 
     22 N         -72.6225   29.0673  -73.5558 N.am      10 UNK        -0.4509 
     23 C         -72.1296   29.7953  -74.5665 C.2       10 UNK         0.4899 
     24 O         -71.6452   30.9194  -74.4265 O.2       10 UNK        -0.4839 
     25 CA        -72.1746   29.1471  -75.9658 C.3       9 UNK         0.0222 
     26 CB        -71.0370   29.6372  -76.8859 C.3       9 UNK        -0.1966 
     27 N         -72.2159   27.6786  -75.9245 N.am      9 UNK        -0.4218 
     28 C         -71.3017   26.8513  -75.3911 C.2       9 UNK         0.5020 
     29 O         -70.2524   27.2328  -74.8697 O.2       9 UNK        -0.5274 
     30 CA        -71.6287   25.3501  -75.3868 C.3       8 UNK         0.0270 
     31 CB        -72.0744   24.9112  -73.9803 C.3       8 UNK        -0.1976 
     32 N         -72.6829   25.0132  -76.3487 N.am      8 UNK        -0.4313 
     33 C         -72.4749   24.4053  -77.5227 C.2       8 UNK         0.5041 
     34 O         -71.3675   24.0411  -77.9213 O.2       8 UNK        -0.5577 
     35 CA        -73.7066   24.1429  -78.4041 C.3       7 UNK         0.0284 
     36 CB        -74.4149   22.8477  -77.9742 C.3       7 UNK        -0.1958 
     37 N         -74.6743   25.2433  -78.4327 N.am      7 UNK        -0.4454 
     38 C         -74.4694   26.4163  -79.0500 C.2       7 UNK         0.5089 
     39 O         -73.3949   26.7492  -79.5495 O.2       7 UNK        -0.5125 
     40 CA        -75.6708   27.3682  -79.1563 C.3       6 UNK         0.0408 
     41 CB        -76.6551   26.8734  -80.2290 C.3       6 UNK        -0.1791 
     42 N         -76.3711   27.4909  -77.8791 N.am      6 UNK        -0.4762 
     43 C         -76.2345   28.5206  -77.0302 C.2       6 UNK         0.5007 
     44 O         -75.5437   29.5115  -77.2666 O.2       6 UNK        -0.5032 
     45 CA        -76.9797   28.4208  -75.6763 C.3       5 UNK         0.0783 
     46 C46       -78.4027   29.0304  -75.7943 C.3       11 UNK        -0.0857 
     47 S47       -78.3721   30.8573  -75.7509 S.3       11 UNK        -0.2512 
     48 C48       -79.4451   31.2576  -74.3297 C.3       11 UNK         0.0225 
     49 N         -77.0373   27.0566  -75.1366 N.am      5 UNK        -0.4615 
     50 C         -76.0089   26.2056  -75.0051 C.2       4 UNK         0.5053 
     51 O         -74.8362   26.4911  -75.2455 O.2       4 UNK        -0.5105 
     52 CA        -76.3582   24.7530  -74.6411 C.3       4 UNK         0.0263 
     53 CB        -76.3470   24.5698  -73.1166 C.3       4 UNK        -0.1981 
     54 N         -77.6482   24.3126  -75.1891 N.am      4 UNK        -0.4224 
     55 C         -77.9920   24.3192  -76.4898 C.2       3 UNK         0.4895 
     56 O         -77.2274   24.6366  -77.4009 O.2       3 UNK        -0.5091 
     57 CA        -79.4613   24.0255  -76.8083 C.3       3 UNK         0.0250 
     58 CB        -79.7787   22.5259  -76.6636 C.3       3 UNK        -0.1996 
     59 N         -80.2810   24.8365  -75.9144 N.am      3 UNK        -0.4254 
     60 C         -81.5860   25.1034  -75.9822 C.2       2 UNK         0.5004 
     61 O         -82.3344   24.6597  -76.8544 O.2       2 UNK        -0.5226 
     62 CA        -82.1301   26.0255  -74.8644 C.3       2 UNK         0.0269 
     63 CB        -83.6636   26.1594  -74.9011 C.3       2 UNK        -0.1926 
     64 N         -81.7246   25.5898  -73.5193 N.am      2 UNK        -0.4687 
     65 C         -80.4966   25.6995  -72.9927 C.2       1 UNK         0.5165 
     66 O         -79.5511   26.2164  -73.5968 O.2       1 UNK        -0.5079 
     67 H67       -79.8977   20.5899  -71.7613 H         1 UNK         0.0900 
     68 H68       -79.7641   20.9272  -73.4874 H         1 UNK         0.0900 
     69 H69       -78.5076   21.4843  -72.3815 H         1 UNK         0.0900 
     70 H70       -78.7031   23.5944  -71.6401 H         1 UNK         0.2959 
     71 H71       -81.2234   24.8840  -71.1383 H         1 UNK         0.1079 
     72 H72       -78.7269   25.2116  -70.0853 H         1 UNK         0.0837 
     73 H73       -78.6372   26.4858  -71.2420 H         1 UNK         0.0837 
     74 H74       -81.5590   27.9732  -71.2020 H         1 UNK         0.0685 
     75 H75       -81.3480   29.0061  -69.8117 H         1 UNK         0.0685 
     76 H76       -81.0583   29.7882  -72.7131 H         1 UNK         0.1434 
     77 H77       -76.9837   31.0511  -73.1361 H         1 UNK         0.1329 
     78 H78       -78.1171   28.5746  -69.8345 H         1 UNK         0.1335 
     79 H79       -75.8819   29.5707  -69.9244 H         1 UNK         0.0680 
     80 H80       -75.4336   30.6524  -71.2290 H         1 UNK         0.0680 
     81 H81       -73.4512   28.8504  -70.2223 H         1 UNK         0.1032 
     82 H82       -73.0086   27.4873  -71.2120 H         1 UNK         0.1032 
     83 H83       -72.9111   30.4286  -72.0313 H         1 UNK         0.0461 
     84 H84       -69.1573   28.8796  -71.8441 H         1 UNK         0.3453 
     85 H85       -70.2554   28.3929  -73.1138 H         1 UNK         0.3453 
     86 H86       -73.0396   28.1729  -73.7680 H         1 UNK         0.2984 
     87 H87       -73.1152   29.4647  -76.4125 H         1 UNK         0.0554 
     88 H88       -71.0959   29.1720  -77.8699 H         1 UNK         0.0847 
     89 H89       -70.0542   29.4174  -76.4680 H         1 UNK         0.0847 
     90 H90       -71.0917   30.7161  -77.0362 H         1 UNK         0.0847 
     91 H91       -73.0860   27.2644  -76.2343 H         1 UNK         0.3141 
     92 H92       -70.7071   24.8170  -75.6293 H         1 UNK         0.0743 
     93 H93       -72.9665   25.4430  -73.6485 H         1 UNK         0.0784 
     94 H94       -72.2905   23.8432  -73.9490 H         1 UNK         0.0784 
     95 H95       -71.2910   25.1039  -73.2459 H         1 UNK         0.0784 
     96 H96       -73.6213   25.3177  -76.1050 H         1 UNK         0.3213 
     97 H97       -73.3460   23.9984  -79.4252 H         1 UNK         0.0855 
     98 H98       -74.8231   22.9218  -76.9666 H         1 UNK         0.0814 
     99 H99       -73.7243   22.0033  -77.9848 H         1 UNK         0.0814 
    100 H100      -75.2357   22.6025  -78.6485 H         1 UNK         0.0814 
    101 H101      -75.6018   25.0405  -78.0633 H         1 UNK         0.3105 
    102 H102      -75.2961   28.3424  -79.4778 H         1 UNK         0.0547 
    103 H103      -77.4768   27.5766  -80.3643 H         1 UNK         0.0837 
    104 H104      -76.1588   26.7668  -81.1945 H         1 UNK         0.0837 
    105 H105      -77.0846   25.9037  -79.9739 H         1 UNK         0.0837 
    106 H106      -76.9185   26.6894  -77.5876 H         1 UNK         0.3020 
    107 H107      -76.4047   28.9994  -74.9495 H         1 UNK         0.1245 
    108 H108      -79.0341   28.6702  -74.9813 H         1 UNK         0.0781 
    109 H109      -78.9037   28.7042  -76.7080 H         1 UNK         0.0781 
    110 H110      -80.4774   31.0424  -74.6099 H         1 UNK         0.0836 
    111 H111      -79.3959   32.3309  -74.1424 H         1 UNK         0.0836 
    112 H112      -77.9459   26.7461  -74.8142 H         1 UNK         0.3022 
    113 H113      -75.5843   24.1121  -75.0657 H         1 UNK         0.0747 
    114 H114      -76.5234   23.5312  -72.8376 H         1 UNK         0.0793 
    115 H115      -75.3806   24.8561  -72.6986 H         1 UNK         0.0793 
    116 H116      -77.1013   25.1893  -72.6317 H         1 UNK         0.0793 
    117 H117      -78.3405   24.0284  -74.5134 H         1 UNK         0.3047 
    118 H118      -79.6561   24.3362  -77.8368 H         1 UNK         0.0822 
    119 H119      -79.6520   22.1802  -75.6378 H         1 UNK         0.0807 
    120 H120      -79.1229   21.9261  -77.2962 H         1 UNK         0.0807 
    121 H121      -80.8034   22.3061  -76.9635 H         1 UNK         0.0807 
    122 H122      -79.7829   25.3053  -75.1622 H         1 UNK         0.2946 
    123 H123      -81.7070   27.0167  -75.0443 H         1 UNK         0.1144 
    124 H124      -84.0014   26.5400  -75.8660 H         1 UNK         0.0793 
    125 H125      -84.1555   25.1997  -74.7377 H         1 UNK         0.0793 
    126 H126      -84.0199   26.8540  -74.1401 H         1 UNK         0.0793 
    127 H127      -82.4094   25.0500  -73.0074 H         1 UNK         0.2896 
@<TRIPOS>BOND
     1    1    2 1    
     2    1   67 1    
     3    1   68 1    
     4    1   69 1    
     5    2    3 2    
     6    2    4 am   BACKBONE|DICT|INTERRES
     7    4    5 1    
     8    4   70 1    
     9    5    6 1    
    10    5   65 1    
    11    5   71 1    
    12    6    7 1    
    13    6   72 1    
    14    6   73 1    
    15    7    8 1    
    16    8    9 1    
    17    8   74 1    
    18    8   75 1    
    19    9   10 ar   
    20    9   14 ar   
    21   10   11 ar   
    22   10   76 1    
    23   11   12 ar   
    24   11   48 1    
    25   12   13 ar   
    26   12   77 1    
    27   13   14 ar   
    28   13   15 1    
    29   14   78 1    
    30   15   16 1    
    31   15   79 1    
    32   15   80 1    
    33   16   17 1    
    34   17   18 1    
    35   17   81 1    
    36   17   82 1    
    37   18   19 1    
    38   18   22 1    
    39   18   83 1    
    40   19   20 am   BACKBONE|DICT|INTERRES
    41   19   21 2    
    42   20   84 1    
    43   20   85 1    
    44   22   23 am   BACKBONE|DICT|INTERRES
    45   22   86 1    
    46   23   24 2    
    47   23   25 1    
    48   25   26 1    
    49   25   27 1    
    50   25   87 1    
    51   26   88 1    
    52   26   89 1    
    53   26   90 1    
    54   27   28 am   BACKBONE|DICT|INTERRES
    55   27   91 1    
    56   28   29 2    
    57   28   30 1    
    58   30   31 1    
    59   30   32 1    
    60   30   92 1    
    61   31   93 1    
    62   31   94 1    
    63   31   95 1    
    64   32   33 am   BACKBONE|DICT|INTERRES
    65   32   96 1    
    66   33   34 2    
    67   33   35 1    
    68   35   36 1    
    69   35   37 1    
    70   35   97 1    
    71   36   98 1    
    72   36   99 1    
    73   36  100 1    
    74   37   38 am   BACKBONE|DICT|INTERRES
    75   37  101 1    
    76   38   39 2    
    77   38   40 1    
    78   40   41 1    
    79   40   42 1    
    80   40  102 1    
    81   41  103 1    
    82   41  104 1    
    83   41  105 1    
    84   42   43 am   BACKBONE|DICT|INTERRES
    85   42  106 1    
    86   43   44 2    
    87   43   45 1    
    88   45   46 1    
    89   45   49 1    
    90   45  107 1    
    91   46   47 1    
    92   46  108 1    
    93   46  109 1    
    94   47   48 1    
    95   48  110 1    
    96   48  111 1    
    97   49   50 am   BACKBONE|DICT|INTERRES
    98   49  112 1    
    99   50   51 2    
   100   50   52 1    
   101   52   53 1    
   102   52   54 1    
   103   52  113 1    
   104   53  114 1    
   105   53  115 1    
   106   53  116 1    
   107   54   55 am   BACKBONE|DICT|INTERRES
   108   54  117 1    
   109   55   56 2    
   110   55   57 1    
   111   57   58 1    
   112   57   59 1    
   113   57  118 1    
   114   58  119 1    
   115   58  120 1    
   116   58  121 1    
   117   59   60 am   BACKBONE|DICT|INTERRES
   118   59  122 1    
   119   60   61 2    
   120   60   62 1    
   121   62   63 1    
   122   62   64 1    
   123   62  123 1    
   124   63  124 1    
   125   63  125 1    
   126   63  126 1    
   127   64   65 am   BACKBONE|DICT|INTERRES
   128   64  127 1    
   129   65   66 2    
@<TRIPOS>SUBSTRUCTURE
     1 UNK         1 GROUP             0       ****    0 ROOT    
