@<TRIPOS>MOLECULE
3R135
127   129    1
SMALL
USER_CHARGES


@<TRIPOS>ATOM
      1 CA        -85.1691   29.3350  -74.1538 C.3       0 UNK        -0.1998 
      2 C         -83.8335   29.5829  -74.8388 C.2       0 UNK         0.4909 
      3 O         -83.8042   30.1286  -75.9420 O.2       0 UNK        -0.5240 
      4 N         -82.7310   29.1934  -74.1869 N.am      1 UNK        -0.4739 
      5 CA        -81.3594   29.2777  -74.7017 C.3       1 UNK         0.0864 
      6 C6        -80.2971   29.0786  -73.5860 C.3       11 UNK        -0.0881 
      7 S7        -80.6465   27.6718  -72.4648 S.3       11 UNK        -0.2682 
      8 C8        -80.4056   28.4275  -70.8267 C.3       11 UNK         0.0289 
      9 C9        -78.9258   28.5615  -70.5085 C.ar      11 UNK        -0.0687 
     10 C10       -78.2147   27.4527  -70.0403 C.ar      11 UNK        -0.0823 
     11 C11       -76.8431   27.5458  -69.7912 C.ar      11 UNK        -0.0830 
     12 C12       -76.1893   28.7637  -69.9857 C.ar      11 UNK        -0.1021 
     13 C13       -76.8847   29.8712  -70.4754 C.ar      11 UNK        -0.0753 
     14 C14       -78.2578   29.7721  -70.7184 C.ar      11 UNK        -0.0933 
     15 C15       -76.1335   31.1544  -70.7917 C.3       11 UNK         0.0166 
     16 S16       -75.9163   31.3955  -72.5867 S.3       11 UNK        -0.2615 
     17 C17       -75.0482   29.8778  -73.1297 C.3       11 UNK        -0.0865 
     18 CA        -73.5231   30.0860  -73.3610 C.3       10 UNK         0.0862 
     19 C         -72.6511   29.5632  -72.1795 C.2       10 UNK         0.5551 
     20 N         -71.6283   28.7466  -72.4106 N.am      10 UNK        -0.7319 
     21 O         -72.8891   29.9220  -71.0298 O.2       10 UNK        -0.5018 
     22 N         -73.1167   29.5487  -74.6678 N.am      10 UNK        -0.4509 
     23 C         -72.2079   30.1092  -75.4748 C.2       10 UNK         0.4899 
     24 O         -71.6401   31.1751  -75.2297 O.2       10 UNK        -0.4839 
     25 CA        -71.8896   29.3574  -76.7807 C.3       9 UNK         0.0222 
     26 CB        -70.5705   29.8208  -77.4359 C.3       9 UNK        -0.1966 
     27 N         -71.9152   27.8965  -76.6434 N.am      9 UNK        -0.4218 
     28 C         -71.1308   27.1327  -75.8664 C.2       9 UNK         0.5020 
     29 O         -70.3083   27.5995  -75.0763 O.2       9 UNK        -0.5274 
     30 CA        -71.2788   25.5968  -75.9644 C.3       8 UNK         0.0270 
     31 CB        -71.2892   24.9492  -74.5678 C.3       8 UNK        -0.1976 
     32 N         -72.4683   25.1565  -76.6996 N.am      8 UNK        -0.4313 
     33 C         -72.6176   25.1478  -78.0313 C.2       8 UNK         0.5041 
     34 O         -71.7158   25.4226  -78.8227 O.2       8 UNK        -0.5577 
     35 CA        -74.0349   24.8618  -78.5655 C.3       7 UNK         0.0284 
     36 CB        -74.2487   23.3558  -78.7810 C.3       7 UNK        -0.1958 
     37 N         -75.0895   25.3991  -77.6952 N.am      7 UNK        -0.4454 
     38 C         -75.2570   26.7033  -77.4245 C.2       7 UNK         0.5089 
     39 O         -74.5857   27.5981  -77.9373 O.2       7 UNK        -0.5125 
     40 CA        -76.3002   27.0697  -76.3585 C.3       6 UNK         0.0408 
     41 CB        -77.7046   27.1377  -76.9678 C.3       6 UNK        -0.1791 
     42 N         -76.2851   26.1281  -75.2373 N.am      6 UNK        -0.4762 
     43 C         -75.3116   26.0784  -74.3148 C.2       6 UNK         0.5007 
     44 O         -74.3754   26.8779  -74.2790 O.2       6 UNK        -0.5032 
     45 CA        -75.3554   24.9050  -73.3110 C.3       5 UNK         0.0783 
     46 C46       -76.0912   25.2685  -71.9953 C.3       11 UNK        -0.0857 
     47 S47       -74.9187   25.7854  -70.6964 S.3       11 UNK        -0.2512 
     48 C48       -76.0487   26.3205  -69.3714 C.3       11 UNK         0.0225 
     49 N         -75.8860   23.6807  -73.9210 N.am      5 UNK        -0.4615 
     50 C         -75.2091   22.9600  -74.8237 C.2       4 UNK         0.5053 
     51 O         -74.0901   23.2650  -75.2317 O.2       4 UNK        -0.5105 
     52 CA        -75.8908   21.7039  -75.3866 C.3       4 UNK         0.0263 
     53 CB        -75.6074   20.4935  -74.4829 C.3       4 UNK        -0.1981 
     54 N         -77.3360   21.8270  -75.5984 N.am      4 UNK        -0.4224 
     55 C         -77.9432   22.7396  -76.3704 C.2       3 UNK         0.4895 
     56 O         -77.3511   23.6734  -76.9175 O.2       3 UNK        -0.5091 
     57 CA        -79.4514   22.5342  -76.6208 C.3       3 UNK         0.0250 
     58 CB        -80.1721   21.7370  -75.5071 C.3       3 UNK        -0.1996 
     59 N         -80.1651   23.7822  -76.9164 N.am      3 UNK        -0.4254 
     60 C         -80.3844   24.8093  -76.0839 C.2       2 UNK         0.5004 
     61 O         -79.9658   24.8639  -74.9246 O.2       2 UNK        -0.5226 
     62 CA        -81.2383   25.9553  -76.6534 C.3       2 UNK         0.0269 
     63 CB        -82.6519   25.4708  -77.0290 C.3       2 UNK        -0.1926 
     64 N         -81.3700   27.0292  -75.6702 N.am      2 UNK        -0.4687 
     65 C         -81.1416   28.3273  -75.8966 C.2       1 UNK         0.5165 
     66 O         -80.7967   28.7846  -76.9875 O.2       1 UNK        -0.5079 
     67 H67       -85.6948   30.2776  -74.0041 H         1 UNK         0.0900 
     68 H68       -85.0466   28.8570  -73.1820 H         1 UNK         0.0900 
     69 H69       -85.7934   28.6905  -74.7721 H         1 UNK         0.0900 
     70 H70       -82.8174   28.7425  -73.2866 H         1 UNK         0.2959 
     71 H71       -81.2264   30.2890  -75.0937 H         1 UNK         0.1079 
     72 H72       -80.2464   29.9935  -72.9951 H         1 UNK         0.0837 
     73 H73       -79.2967   28.9545  -74.0064 H         1 UNK         0.0837 
     74 H74       -80.9081   29.3948  -70.7787 H         1 UNK         0.0685 
     75 H75       -80.8845   27.7983  -70.0750 H         1 UNK         0.0685 
     76 H76       -78.7258   26.5090  -69.9055 H         1 UNK         0.1434 
     77 H77       -75.1231   28.8303  -69.8135 H         1 UNK         0.1329 
     78 H78       -78.7949   30.6276  -71.1042 H         1 UNK         0.1335 
     79 H79       -75.1568   31.1635  -70.3064 H         1 UNK         0.0680 
     80 H80       -76.6828   32.0047  -70.3852 H         1 UNK         0.0680 
     81 H81       -75.5347   29.5872  -74.0618 H         1 UNK         0.1032 
     82 H82       -75.2420   29.0393  -72.4615 H         1 UNK         0.1032 
     83 H83       -73.3382   31.1613  -73.3824 H         1 UNK         0.0461 
     84 H84       -71.3916   28.4620  -73.3520 H         1 UNK         0.3453 
     85 H85       -71.0727   28.4256  -71.6344 H         1 UNK         0.3453 
     86 H86       -73.4880   28.6313  -74.8921 H         1 UNK         0.2984 
     87 H87       -72.6981   29.6057  -77.4696 H         1 UNK         0.0554 
     88 H88       -70.3825   29.2893  -78.3687 H         1 UNK         0.0847 
     89 H89       -69.7145   29.6606  -76.7796 H         1 UNK         0.0847 
     90 H90       -70.6027   30.8849  -77.6730 H         1 UNK         0.0847 
     91 H91       -72.6114   27.4338  -77.2171 H         1 UNK         0.3141 
     92 H92       -70.3982   25.2307  -76.4958 H         1 UNK         0.0743 
     93 H93       -72.1098   25.3261  -73.9573 H         1 UNK         0.0784 
     94 H94       -71.3875   23.8653  -74.6316 H         1 UNK         0.0784 
     95 H95       -70.3631   25.1561  -74.0301 H         1 UNK         0.0784 
     96 H96       -73.2421   24.8175  -76.1355 H         1 UNK         0.3213 
     97 H97       -74.1280   25.3589  -79.5336 H         1 UNK         0.0855 
     98 H98       -74.1026   22.7905  -77.8616 H         1 UNK         0.0814 
     99 H99       -73.5414   22.9664  -79.5144 H         1 UNK         0.0814 
    100 H100      -75.2517   23.1434  -79.1516 H         1 UNK         0.0814 
    101 H101      -75.7319   24.7331  -77.2740 H         1 UNK         0.3105 
    102 H102      -76.0554   28.0621  -75.9745 H         1 UNK         0.0547 
    103 H103      -77.7628   27.9153  -77.7304 H         1 UNK         0.0837 
    104 H104      -77.9929   26.1980  -77.4384 H         1 UNK         0.0837 
    105 H105      -78.4431   27.3745  -76.2044 H         1 UNK         0.0837 
    106 H106      -76.9951   25.4072  -75.2377 H         1 UNK         0.3020 
    107 H107      -74.3128   24.6866  -73.0667 H         1 UNK         0.1245 
    108 H108      -76.8442   26.0429  -72.1551 H         1 UNK         0.0781 
    109 H109      -76.6330   24.4066  -71.6023 H         1 UNK         0.0781 
    110 H110      -76.7087   25.4948  -69.1007 H         1 UNK         0.0836 
    111 H111      -75.4665   26.5559  -68.4793 H         1 UNK         0.0836 
    112 H112      -76.8093   23.3816  -73.6430 H         1 UNK         0.3022 
    113 H113      -75.4436   21.5048  -76.3619 H         1 UNK         0.0747 
    114 H114      -75.9782   19.5696  -74.9271 H         1 UNK         0.0793 
    115 H115      -74.5351   20.3660  -74.3260 H         1 UNK         0.0793 
    116 H116      -76.0692   20.6043  -73.5009 H         1 UNK         0.0793 
    117 H117      -77.9089   21.1030  -75.1896 H         1 UNK         0.3047 
    118 H118      -79.5139   21.9408  -77.5341 H         1 UNK         0.0822 
    119 H119      -81.2432   21.6746  -75.7006 H         1 UNK         0.0807 
    120 H120      -80.0419   22.1959  -74.5261 H         1 UNK         0.0807 
    121 H121      -79.8074   20.7112  -75.4458 H         1 UNK         0.0807 
    122 H122      -80.5161   23.8561  -77.8610 H         1 UNK         0.2946 
    123 H123      -80.7341   26.3223  -77.5505 H         1 UNK         0.1144 
    124 H124      -82.6231   24.7130  -77.8125 H         1 UNK         0.0793 
    125 H125      -83.2628   26.2924  -77.4038 H         1 UNK         0.0793 
    126 H126      -83.1686   25.0368  -76.1719 H         1 UNK         0.0793 
    127 H127      -81.5380   26.7311  -74.7175 H         1 UNK         0.2896 
@<TRIPOS>BOND
     1    1    2 1    
     2    1   67 1    
     3    1   68 1    
     4    1   69 1    
     5    2    3 2    
     6    2    4 am   BACKBONE|DICT|INTERRES
     7    4    5 1    
     8    4   70 1    
     9    5    6 1    
    10    5   65 1    
    11    5   71 1    
    12    6    7 1    
    13    6   72 1    
    14    6   73 1    
    15    7    8 1    
    16    8    9 1    
    17    8   74 1    
    18    8   75 1    
    19    9   10 ar   
    20    9   14 ar   
    21   10   11 ar   
    22   10   76 1    
    23   11   12 ar   
    24   11   48 1    
    25   12   13 ar   
    26   12   77 1    
    27   13   14 ar   
    28   13   15 1    
    29   14   78 1    
    30   15   16 1    
    31   15   79 1    
    32   15   80 1    
    33   16   17 1    
    34   17   18 1    
    35   17   81 1    
    36   17   82 1    
    37   18   19 1    
    38   18   22 1    
    39   18   83 1    
    40   19   20 am   BACKBONE|DICT|INTERRES
    41   19   21 2    
    42   20   84 1    
    43   20   85 1    
    44   22   23 am   BACKBONE|DICT|INTERRES
    45   22   86 1    
    46   23   24 2    
    47   23   25 1    
    48   25   26 1    
    49   25   27 1    
    50   25   87 1    
    51   26   88 1    
    52   26   89 1    
    53   26   90 1    
    54   27   28 am   BACKBONE|DICT|INTERRES
    55   27   91 1    
    56   28   29 2    
    57   28   30 1    
    58   30   31 1    
    59   30   32 1    
    60   30   92 1    
    61   31   93 1    
    62   31   94 1    
    63   31   95 1    
    64   32   33 am   BACKBONE|DICT|INTERRES
    65   32   96 1    
    66   33   34 2    
    67   33   35 1    
    68   35   36 1    
    69   35   37 1    
    70   35   97 1    
    71   36   98 1    
    72   36   99 1    
    73   36  100 1    
    74   37   38 am   BACKBONE|DICT|INTERRES
    75   37  101 1    
    76   38   39 2    
    77   38   40 1    
    78   40   41 1    
    79   40   42 1    
    80   40  102 1    
    81   41  103 1    
    82   41  104 1    
    83   41  105 1    
    84   42   43 am   BACKBONE|DICT|INTERRES
    85   42  106 1    
    86   43   44 2    
    87   43   45 1    
    88   45   46 1    
    89   45   49 1    
    90   45  107 1    
    91   46   47 1    
    92   46  108 1    
    93   46  109 1    
    94   47   48 1    
    95   48  110 1    
    96   48  111 1    
    97   49   50 am   BACKBONE|DICT|INTERRES
    98   49  112 1    
    99   50   51 2    
   100   50   52 1    
   101   52   53 1    
   102   52   54 1    
   103   52  113 1    
   104   53  114 1    
   105   53  115 1    
   106   53  116 1    
   107   54   55 am   BACKBONE|DICT|INTERRES
   108   54  117 1    
   109   55   56 2    
   110   55   57 1    
   111   57   58 1    
   112   57   59 1    
   113   57  118 1    
   114   58  119 1    
   115   58  120 1    
   116   58  121 1    
   117   59   60 am   BACKBONE|DICT|INTERRES
   118   59  122 1    
   119   60   61 2    
   120   60   62 1    
   121   62   63 1    
   122   62   64 1    
   123   62  123 1    
   124   63  124 1    
   125   63  125 1    
   126   63  126 1    
   127   64   65 am   BACKBONE|DICT|INTERRES
   128   64  127 1    
   129   65   66 2    
@<TRIPOS>SUBSTRUCTURE
     1 UNK         1 GROUP             0       ****    0 ROOT    
