@<TRIPOS>MOLECULE
3R135
127   129    1
SMALL
USER_CHARGES


@<TRIPOS>ATOM
      1 CA        -84.6796   26.1663  -71.1683 C.3       0 UNK        -0.1998 
      2 C         -84.4649   26.5839  -72.6154 C.2       0 UNK         0.4909 
      3 O         -85.0070   25.9521  -73.5230 O.2       0 UNK        -0.5240 
      4 N         -83.6875   27.6501  -72.8364 N.am      1 UNK        -0.4739 
      5 CA        -83.2859   28.1388  -74.1582 C.3       1 UNK         0.0864 
      6 C6        -82.7628   29.6029  -74.1005 C.3       11 UNK        -0.0881 
      7 S7        -81.5226   29.9273  -72.7920 S.3       11 UNK        -0.2682 
      8 C8        -79.9625   29.7881  -73.7237 C.3       11 UNK         0.0289 
      9 C9        -78.8043   29.3612  -72.8310 C.ar      11 UNK        -0.0687 
     10 C10       -78.8464   28.1308  -72.1662 C.ar      11 UNK        -0.0823 
     11 C11       -77.7833   27.7192  -71.3578 C.ar      11 UNK        -0.0830 
     12 C12       -76.6569   28.5367  -71.2364 C.ar      11 UNK        -0.1021 
     13 C13       -76.5953   29.7624  -71.9053 C.ar      11 UNK        -0.0753 
     14 C14       -77.6764   30.1755  -72.6917 C.ar      11 UNK        -0.0933 
     15 C15       -75.3566   30.6350  -71.7813 C.3       11 UNK         0.0166 
     16 S16       -74.4389   30.6738  -73.3481 S.3       11 UNK        -0.2615 
     17 C17       -72.8103   31.3097  -72.8128 C.3       11 UNK        -0.0865 
     18 CA        -71.6612   30.2642  -72.9473 C.3       10 UNK         0.0862 
     19 C         -71.6506   29.1662  -71.8470 C.2       10 UNK         0.5551 
     20 N         -71.7734   29.5438  -70.5809 N.am      10 UNK        -0.7319 
     21 O         -71.4868   27.9780  -72.1170 O.2       10 UNK        -0.5018 
     22 N         -71.6107   29.6863  -74.2949 N.am      10 UNK        -0.4509 
     23 C         -71.1593   30.3098  -75.3870 C.2       10 UNK         0.4899 
     24 O         -70.6085   31.4120  -75.3610 O.2       10 UNK        -0.4839 
     25 CA        -71.4117   29.6203  -76.7411 C.3       9 UNK         0.0222 
     26 CB        -70.3683   29.9966  -77.8156 C.3       9 UNK        -0.1966 
     27 N         -71.5942   28.1671  -76.6489 N.am      9 UNK        -0.4218 
     28 C         -70.6693   27.2425  -76.3439 C.2       9 UNK         0.5020 
     29 O         -69.5019   27.5143  -76.0595 O.2       9 UNK        -0.5274 
     30 CA        -71.0979   25.7589  -76.3510 C.3       8 UNK         0.0270 
     31 CB        -70.9885   25.1592  -74.9385 C.3       8 UNK        -0.1976 
     32 N         -72.4494   25.5188  -76.8668 N.am      8 UNK        -0.4313 
     33 C         -72.8403   25.6712  -78.1398 C.2       8 UNK         0.5041 
     34 O         -72.0728   25.9473  -79.0622 O.2       8 UNK        -0.5577 
     35 CA        -74.3485   25.5457  -78.4264 C.3       7 UNK         0.0284 
     36 CB        -74.7052   24.1055  -78.8243 C.3       7 UNK        -0.1958 
     37 N         -75.1981   25.9731  -77.3076 N.am      7 UNK        -0.4454 
     38 C         -75.2340   27.2138  -76.7955 C.2       7 UNK         0.5089 
     39 O         -74.5489   28.1471  -77.2135 O.2       7 UNK        -0.5125 
     40 CA        -76.1538   27.4318  -75.5833 C.3       6 UNK         0.0408 
     41 CB        -77.6178   27.5891  -76.0229 C.3       6 UNK        -0.1791 
     42 N         -76.0349   26.3282  -74.6298 N.am      6 UNK        -0.4762 
     43 C         -74.9767   26.1470  -73.8268 C.2       6 UNK         0.5007 
     44 O         -74.0250   26.9248  -73.7735 O.2       6 UNK        -0.5032 
     45 CA        -74.9405   24.8516  -72.9879 C.3       5 UNK         0.0783 
     46 C46       -75.5975   25.0296  -71.5958 C.3       11 UNK        -0.0857 
     47 S47       -77.4263   24.9782  -71.6243 S.3       11 UNK        -0.2512 
     48 C48       -77.8721   26.4077  -70.5928 C.3       11 UNK         0.0225 
     49 N         -75.4868   23.6945  -73.7043 N.am      5 UNK        -0.4615 
     50 C         -74.9548   23.1437  -74.8015 C.2       4 UNK         0.5053 
     51 O         -73.9022   23.5224  -75.3113 O.2       4 UNK        -0.5105 
     52 CA        -75.7545   22.0079  -75.4674 C.3       4 UNK         0.0263 
     53 CB        -75.3677   20.6524  -74.8554 C.3       4 UNK        -0.1981 
     54 N         -77.2126   22.1777  -75.4020 N.am      4 UNK        -0.4224 
     55 C         -77.8845   23.2403  -75.8670 C.2       3 UNK         0.4895 
     56 O         -77.3379   24.2133  -76.3977 O.2       3 UNK        -0.5091 
     57 CA        -79.4097   23.2336  -75.6828 C.3       3 UNK         0.0250 
     58 CB        -79.7948   23.1521  -74.1897 C.3       3 UNK        -0.1996 
     59 N         -79.9259   24.4671  -76.2667 N.am      3 UNK        -0.4254 
     60 C         -81.2026   24.8011  -76.4722 C.2       2 UNK         0.5004 
     61 O         -82.1611   24.0481  -76.2851 O.2       2 UNK        -0.5226 
     62 CA        -81.4430   26.2368  -76.9770 C.3       2 UNK         0.0269 
     63 CB        -81.9597   26.2258  -78.4252 C.3       2 UNK        -0.1926 
     64 N         -82.3695   27.0054  -76.1363 N.am      2 UNK        -0.4687 
     65 C         -82.2587   27.1888  -74.8111 C.2       1 UNK         0.5165 
     66 O         -81.3666   26.6923  -74.1194 O.2       1 UNK        -0.5079 
     67 H67       -84.1530   26.8202  -70.4733 H         1 UNK         0.0900 
     68 H68       -84.3203   25.1491  -71.0149 H         1 UNK         0.0900 
     69 H69       -85.7408   26.1944  -70.9226 H         1 UNK         0.0900 
     70 H70       -83.2379   28.1155  -72.0602 H         1 UNK         0.2959 
     71 H71       -84.1786   28.1357  -74.7881 H         1 UNK         0.1079 
     72 H72       -82.3716   29.9202  -75.0693 H         1 UNK         0.0837 
     73 H73       -83.6066   30.2666  -73.9053 H         1 UNK         0.0837 
     74 H74       -79.7549   30.7447  -74.2056 H         1 UNK         0.0685 
     75 H75       -80.0673   29.0591  -74.5259 H         1 UNK         0.0685 
     76 H76       -79.7156   27.4960  -72.2725 H         1 UNK         0.1434 
     77 H77       -75.8275   28.2211  -70.6188 H         1 UNK         0.1329 
     78 H78       -77.6256   31.1230  -73.2105 H         1 UNK         0.1335 
     79 H79       -75.6430   31.6495  -71.5008 H         1 UNK         0.0680 
     80 H80       -74.7063   30.2610  -70.9889 H         1 UNK         0.0680 
     81 H81       -72.5805   32.1721  -73.4400 H         1 UNK         0.1032 
     82 H82       -72.8722   31.7119  -71.8010 H         1 UNK         0.1032 
     83 H83       -70.7180   30.7931  -72.7978 H         1 UNK         0.0461 
     84 H84       -71.7480   28.8389  -69.8610 H         1 UNK         0.3453 
     85 H85       -71.8631   30.5139  -70.3257 H         1 UNK         0.3453 
     86 H86       -72.0269   28.7671  -74.3740 H         1 UNK         0.2984 
     87 H87       -72.3731   30.0053  -77.0837 H         1 UNK         0.0554 
     88 H88       -70.5775   29.5003  -78.7633 H         1 UNK         0.0847 
     89 H89       -69.3561   29.7292  -77.5115 H         1 UNK         0.0847 
     90 H90       -70.3737   31.0704  -78.0065 H         1 UNK         0.0847 
     91 H91       -72.5387   27.8509  -76.8454 H         1 UNK         0.3141 
     92 H92       -70.3971   25.2294  -76.9996 H         1 UNK         0.0743 
     93 H93       -69.9791   25.2717  -74.5407 H         1 UNK         0.0784 
     94 H94       -71.6680   25.6484  -74.2398 H         1 UNK         0.0784 
     95 H95       -71.2165   24.0932  -74.9396 H         1 UNK         0.0784 
     96 H96       -73.1349   25.1816  -76.1977 H         1 UNK         0.3213 
     97 H97       -74.5762   26.1988  -79.2715 H         1 UNK         0.0855 
     98 H98       -74.4320   23.3956  -78.0447 H         1 UNK         0.0814 
     99 H99       -74.1731   23.8110  -79.7297 H         1 UNK         0.0814 
    100 H100      -75.7717   23.9963  -79.0229 H         1 UNK         0.0814 
    101 H101      -75.8259   25.2764  -76.9138 H         1 UNK         0.3105 
    102 H102      -75.8526   28.3527  -75.0784 H         1 UNK         0.0547 
    103 H103      -77.9328   26.7869  -76.6889 H         1 UNK         0.0837 
    104 H104      -78.2905   27.5973  -75.1661 H         1 UNK         0.0837 
    105 H105      -77.7587   28.5279  -76.5595 H         1 UNK         0.0837 
    106 H106      -76.7503   25.6152  -74.6578 H         1 UNK         0.3020 
    107 H107      -73.8811   24.6435  -72.8181 H         1 UNK         0.1245 
    108 H108      -75.2476   25.9474  -71.1209 H         1 UNK         0.0781 
    109 H109      -75.2656   24.2234  -70.9400 H         1 UNK         0.0781 
    110 H110      -77.2424   26.4325  -69.7020 H         1 UNK         0.0836 
    111 H111      -78.8930   26.2700  -70.2331 H         1 UNK         0.0836 
    112 H112      -76.3616   23.3339  -73.3520 H         1 UNK         0.3022 
    113 H113      -75.4803   21.9903  -76.5230 H         1 UNK         0.0747 
    114 H114      -75.8423   19.8266  -75.3857 H         1 UNK         0.0793 
    115 H115      -74.2898   20.4928  -74.9114 H         1 UNK         0.0793 
    116 H116      -75.6527   20.5863  -73.8045 H         1 UNK         0.0793 
    117 H117      -77.7342   21.4213  -74.9826 H         1 UNK         0.3047 
    118 H118      -79.8210   22.3806  -76.2258 H         1 UNK         0.0822 
    119 H119      -79.3832   22.2643  -73.7093 H         1 UNK         0.0807 
    120 H120      -80.8759   23.1063  -74.0586 H         1 UNK         0.0807 
    121 H121      -79.4370   24.0224  -73.6386 H         1 UNK         0.0807 
    122 H122      -79.1868   25.1130  -76.5138 H         1 UNK         0.2946 
    123 H123      -80.4924   26.7736  -76.9638 H         1 UNK         0.1144 
    124 H124      -81.2787   25.6784  -79.0785 H         1 UNK         0.0793 
    125 H125      -82.0474   27.2360  -78.8257 H         1 UNK         0.0793 
    126 H126      -82.9371   25.7473  -78.4999 H         1 UNK         0.0793 
    127 H127      -83.1444   27.4373  -76.6185 H         1 UNK         0.2896 
@<TRIPOS>BOND
     1    1    2 1    
     2    1   67 1    
     3    1   68 1    
     4    1   69 1    
     5    2    3 2    
     6    2    4 am   BACKBONE|DICT|INTERRES
     7    4    5 1    
     8    4   70 1    
     9    5    6 1    
    10    5   65 1    
    11    5   71 1    
    12    6    7 1    
    13    6   72 1    
    14    6   73 1    
    15    7    8 1    
    16    8    9 1    
    17    8   74 1    
    18    8   75 1    
    19    9   10 ar   
    20    9   14 ar   
    21   10   11 ar   
    22   10   76 1    
    23   11   12 ar   
    24   11   48 1    
    25   12   13 ar   
    26   12   77 1    
    27   13   14 ar   
    28   13   15 1    
    29   14   78 1    
    30   15   16 1    
    31   15   79 1    
    32   15   80 1    
    33   16   17 1    
    34   17   18 1    
    35   17   81 1    
    36   17   82 1    
    37   18   19 1    
    38   18   22 1    
    39   18   83 1    
    40   19   20 am   BACKBONE|DICT|INTERRES
    41   19   21 2    
    42   20   84 1    
    43   20   85 1    
    44   22   23 am   BACKBONE|DICT|INTERRES
    45   22   86 1    
    46   23   24 2    
    47   23   25 1    
    48   25   26 1    
    49   25   27 1    
    50   25   87 1    
    51   26   88 1    
    52   26   89 1    
    53   26   90 1    
    54   27   28 am   BACKBONE|DICT|INTERRES
    55   27   91 1    
    56   28   29 2    
    57   28   30 1    
    58   30   31 1    
    59   30   32 1    
    60   30   92 1    
    61   31   93 1    
    62   31   94 1    
    63   31   95 1    
    64   32   33 am   BACKBONE|DICT|INTERRES
    65   32   96 1    
    66   33   34 2    
    67   33   35 1    
    68   35   36 1    
    69   35   37 1    
    70   35   97 1    
    71   36   98 1    
    72   36   99 1    
    73   36  100 1    
    74   37   38 am   BACKBONE|DICT|INTERRES
    75   37  101 1    
    76   38   39 2    
    77   38   40 1    
    78   40   41 1    
    79   40   42 1    
    80   40  102 1    
    81   41  103 1    
    82   41  104 1    
    83   41  105 1    
    84   42   43 am   BACKBONE|DICT|INTERRES
    85   42  106 1    
    86   43   44 2    
    87   43   45 1    
    88   45   46 1    
    89   45   49 1    
    90   45  107 1    
    91   46   47 1    
    92   46  108 1    
    93   46  109 1    
    94   47   48 1    
    95   48  110 1    
    96   48  111 1    
    97   49   50 am   BACKBONE|DICT|INTERRES
    98   49  112 1    
    99   50   51 2    
   100   50   52 1    
   101   52   53 1    
   102   52   54 1    
   103   52  113 1    
   104   53  114 1    
   105   53  115 1    
   106   53  116 1    
   107   54   55 am   BACKBONE|DICT|INTERRES
   108   54  117 1    
   109   55   56 2    
   110   55   57 1    
   111   57   58 1    
   112   57   59 1    
   113   57  118 1    
   114   58  119 1    
   115   58  120 1    
   116   58  121 1    
   117   59   60 am   BACKBONE|DICT|INTERRES
   118   59  122 1    
   119   60   61 2    
   120   60   62 1    
   121   62   63 1    
   122   62   64 1    
   123   62  123 1    
   124   63  124 1    
   125   63  125 1    
   126   63  126 1    
   127   64   65 am   BACKBONE|DICT|INTERRES
   128   64  127 1    
   129   65   66 2    
@<TRIPOS>SUBSTRUCTURE
     1 UNK         1 GROUP             0       ****    0 ROOT    
