@<TRIPOS>MOLECULE
3R135
127   129    1
SMALL
USER_CHARGES


@<TRIPOS>ATOM
      1 CA        -85.1269   25.1441  -70.6560 C.3       0 UNK        -0.1998 
      2 C         -84.2964   25.9768  -71.6214 C.2       0 UNK         0.4909 
      3 O         -84.8569   26.6613  -72.4786 O.2       0 UNK        -0.5240 
      4 N         -82.9657   25.9320  -71.4825 N.am      1 UNK        -0.4739 
      5 CA        -82.0106   26.6274  -72.3526 C.3       1 UNK         0.0864 
      6 C6        -80.5990   26.7030  -71.7202 C.3       11 UNK        -0.0881 
      7 S7        -80.5840   27.5469  -70.1032 S.3       11 UNK        -0.2682 
      8 C8        -80.4928   29.3041  -70.5850 C.3       11 UNK         0.0289 
      9 C9        -79.2212   29.6518  -71.3498 C.ar      11 UNK        -0.0687 
     10 C10       -79.2981   30.2128  -72.6293 C.ar      11 UNK        -0.0823 
     11 C11       -78.1365   30.5551  -73.3307 C.ar      11 UNK        -0.0830 
     12 C12       -76.8897   30.3299  -72.7380 C.ar      11 UNK        -0.1021 
     13 C13       -76.8004   29.7573  -71.4661 C.ar      11 UNK        -0.0753 
     14 C14       -77.9677   29.4304  -70.7722 C.ar      11 UNK        -0.0933 
     15 C15       -75.4408   29.4646  -70.8577 C.3       11 UNK         0.0166 
     16 S16       -74.9001   27.8028  -71.3475 S.3       11 UNK        -0.2615 
     17 C17       -73.1527   27.7908  -70.8281 C.3       11 UNK        -0.0865 
     18 CA        -72.2244   28.6938  -71.6862 C.3       10 UNK         0.0862 
     19 C         -70.7386   28.5355  -71.2447 C.2       10 UNK         0.5551 
     20 N         -69.8222   28.1031  -72.1032 N.am      10 UNK        -0.7319 
     21 O         -70.4114   28.8169  -70.0944 O.2       10 UNK        -0.5018 
     22 N         -72.4589   28.5376  -73.1320 N.am      10 UNK        -0.4509 
     23 C         -72.1078   29.4436  -74.0535 C.2       10 UNK         0.4899 
     24 O         -71.6188   30.5401  -73.7750 O.2       10 UNK        -0.4839 
     25 CA        -72.3369   29.0639  -75.5315 C.3       9 UNK         0.0222 
     26 CB        -71.4701   29.8993  -76.4964 C.3       9 UNK        -0.1966 
     27 N         -72.1767   27.6333  -75.8347 N.am      9 UNK        -0.4218 
     28 C         -71.1163   26.8574  -75.5534 C.2       9 UNK         0.5020 
     29 O         -70.1397   27.2351  -74.9039 O.2       9 UNK        -0.5274 
     30 CA        -71.1358   25.4123  -76.0788 C.3       8 UNK         0.0270 
     31 CB        -71.7489   24.4568  -75.0436 C.3       8 UNK        -0.1976 
     32 N         -71.8304   25.2602  -77.3589 N.am      8 UNK        -0.4313 
     33 C         -71.3660   25.6836  -78.5403 C.2       8 UNK         0.5041 
     34 O         -70.2993   26.2841  -78.6765 O.2       8 UNK        -0.5577 
     35 CA        -72.2122   25.3760  -79.7911 C.3       7 UNK         0.0284 
     36 CB        -72.0043   23.9201  -80.2538 C.3       7 UNK        -0.1958 
     37 N         -73.6413   25.7041  -79.6771 N.am      7 UNK        -0.4454 
     38 C         -74.5685   25.1705  -78.8708 C.2       7 UNK         0.5089 
     39 O         -74.3455   24.2789  -78.0492 O.2       7 UNK        -0.5125 
     40 CA        -75.9865   25.7543  -78.9962 C.3       6 UNK         0.0408 
     41 CB        -76.9791   24.6745  -79.4561 C.3       6 UNK        -0.1791 
     42 N         -76.4651   26.3376  -77.7426 N.am      6 UNK        -0.4762 
     43 C         -75.8523   27.2946  -77.0297 C.2       6 UNK         0.5007 
     44 O         -74.7871   27.8182  -77.3559 O.2       6 UNK        -0.5032 
     45 CA        -76.5412   27.7137  -75.7167 C.3       5 UNK         0.0783 
     46 C46       -77.7188   28.6916  -75.9695 C.3       11 UNK        -0.0857 
     47 S47       -77.1573   30.4263  -75.9700 S.3       11 UNK        -0.2512 
     48 C48       -78.2431   31.1903  -74.7153 C.3       11 UNK         0.0225 
     49 N         -76.9674   26.5362  -74.9629 N.am      5 UNK        -0.4615 
     50 C         -76.1405   25.7300  -74.2847 C.2       4 UNK         0.5053 
     51 O         -74.9275   25.9171  -74.1947 O.2       4 UNK        -0.5105 
     52 CA        -76.7759   24.5138  -73.5869 C.3       4 UNK         0.0263 
     53 CB        -77.1050   24.8486  -72.1233 C.3       4 UNK        -0.1981 
     54 N         -77.9921   24.0541  -74.2647 N.am      4 UNK        -0.4224 
     55 C         -77.9945   23.3322  -75.3945 C.2       3 UNK         0.4895 
     56 O         -76.9783   22.8951  -75.9324 O.2       3 UNK        -0.5091 
     57 CA        -79.3613   23.0661  -76.0479 C.3       3 UNK         0.0250 
     58 CB        -79.9795   21.7698  -75.5004 C.3       3 UNK        -0.1996 
     59 N         -80.3197   24.1647  -75.8900 N.am      3 UNK        -0.4254 
     60 C         -80.1798   25.3976  -76.3924 C.2       2 UNK         0.5004 
     61 O         -79.1760   25.7772  -76.9936 O.2       2 UNK        -0.5226 
     62 CA        -81.3351   26.3868  -76.1636 C.3       2 UNK         0.0269 
     63 CB        -82.6411   25.9049  -76.8280 C.3       2 UNK        -0.1926 
     64 N         -81.5411   26.7459  -74.7524 N.am      2 UNK        -0.4687 
     65 C         -81.9300   25.9569  -73.7392 C.2       1 UNK         0.5165 
     66 O         -82.1694   24.7514  -73.8550 O.2       1 UNK        -0.5079 
     67 H67       -85.7227   24.4161  -71.2059 H         1 UNK         0.0900 
     68 H68       -85.8051   25.7859  -70.0942 H         1 UNK         0.0900 
     69 H69       -84.5036   24.6037  -69.9438 H         1 UNK         0.0900 
     70 H70       -82.5576   25.3482  -70.7668 H         1 UNK         0.2959 
     71 H71       -82.3788   27.6454  -72.4992 H         1 UNK         0.1079 
     72 H72       -80.2011   25.6977  -71.5682 H         1 UNK         0.0837 
     73 H73       -79.8942   27.2041  -72.3863 H         1 UNK         0.0837 
     74 H74       -81.3808   29.5580  -71.1657 H         1 UNK         0.0685 
     75 H75       -80.5351   29.9149  -69.6823 H         1 UNK         0.0685 
     76 H76       -80.2662   30.3942  -73.0759 H         1 UNK         0.1434 
     77 H77       -75.9856   30.5853  -73.2738 H         1 UNK         0.1329 
     78 H78       -77.9016   28.9868  -69.7881 H         1 UNK         0.1335 
     79 H79       -74.7204   30.2104  -71.1947 H         1 UNK         0.0680 
     80 H80       -75.4805   29.5328  -69.7695 H         1 UNK         0.0680 
     81 H81       -73.1008   28.0790  -69.7763 H         1 UNK         0.1032 
     82 H82       -72.8111   26.7549  -70.8725 H         1 UNK         0.1032 
     83 H83       -72.4780   29.7260  -71.4402 H         1 UNK         0.0461 
     84 H84       -68.8670   28.0116  -71.7969 H         1 UNK         0.3453 
     85 H85       -70.0663   27.8712  -73.0616 H         1 UNK         0.3453 
     86 H86       -72.8778   27.6671  -73.4287 H         1 UNK         0.2984 
     87 H87       -73.3797   29.3077  -75.7342 H         1 UNK         0.0554 
     88 H88       -71.6786   29.6447  -77.5356 H         1 UNK         0.0847 
     89 H89       -70.4057   29.7407  -76.3193 H         1 UNK         0.0847 
     90 H90       -71.6661   30.9661  -76.3818 H         1 UNK         0.0847 
     91 H91       -72.9415   27.2261  -76.3608 H         1 UNK         0.3141 
     92 H92       -70.0955   25.1148  -76.2283 H         1 UNK         0.0743 
     93 H93       -71.2762   24.5773  -74.0677 H         1 UNK         0.0784 
     94 H94       -72.8162   24.6319  -74.9151 H         1 UNK         0.0784 
     95 H95       -71.6171   23.4164  -75.3409 H         1 UNK         0.0784 
     96 H96       -72.7305   24.7818  -77.3597 H         1 UNK         0.3213 
     97 H97       -71.8306   26.0218  -80.5839 H         1 UNK         0.0855 
     98 H98       -72.3592   23.1998  -79.5161 H         1 UNK         0.0814 
     99 H99       -70.9465   23.7139  -80.4226 H         1 UNK         0.0814 
    100 H100      -72.5253   23.7239  -81.1908 H         1 UNK         0.0814 
    101 H101      -73.9407   26.4669  -80.2696 H         1 UNK         0.3105 
    102 H102      -75.9801   26.5506  -79.7430 H         1 UNK         0.0547 
    103 H103      -77.9755   25.0893  -79.6096 H         1 UNK         0.0837 
    104 H104      -76.6633   24.2276  -80.3996 H         1 UNK         0.0837 
    105 H105      -77.0622   23.8695  -78.7243 H         1 UNK         0.0837 
    106 H106      -77.3585   25.9904  -77.4010 H         1 UNK         0.3020 
    107 H107      -75.7911   28.2207  -75.1038 H         1 UNK         0.1245 
    108 H108      -78.4772   28.5748  -75.1945 H         1 UNK         0.0781 
    109 H109      -78.2363   28.4817  -76.9079 H         1 UNK         0.0781 
    110 H110      -77.9894   32.2478  -74.6325 H         1 UNK         0.0836 
    111 H111      -79.2704   31.1507  -75.0810 H         1 UNK         0.0836 
    112 H112      -77.9366   26.2733  -75.0523 H         1 UNK         0.3022 
    113 H113      -76.0434   23.7035  -73.5950 H         1 UNK         0.0747 
    114 H114      -77.5991   24.0166  -71.6214 H         1 UNK         0.0793 
    115 H115      -77.7465   25.7266  -72.0405 H         1 UNK         0.0793 
    116 H116      -76.1930   25.0642  -71.5655 H         1 UNK         0.0793 
    117 H117      -78.8782   24.3384  -73.8746 H         1 UNK         0.3047 
    118 H118      -79.1873   22.9360  -77.1183 H         1 UNK         0.0822 
    119 H119      -79.2946   20.9290  -75.6198 H         1 UNK         0.0807 
    120 H120      -80.8982   21.5148  -76.0292 H         1 UNK         0.0807 
    121 H121      -80.2154   21.8515  -74.4385 H         1 UNK         0.0807 
    122 H122      -81.1464   23.9866  -75.3266 H         1 UNK         0.2946 
    123 H123      -81.0457   27.3110  -76.6677 H         1 UNK         0.1144 
    124 H124      -82.4854   25.7020  -77.8885 H         1 UNK         0.0793 
    125 H125      -83.4214   26.6626  -76.7562 H         1 UNK         0.0793 
    126 H126      -83.0258   24.9896  -76.3777 H         1 UNK         0.0793 
    127 H127      -81.3507   27.7153  -74.5390 H         1 UNK         0.2896 
@<TRIPOS>BOND
     1    1    2 1    
     2    1   67 1    
     3    1   68 1    
     4    1   69 1    
     5    2    3 2    
     6    2    4 am   BACKBONE|DICT|INTERRES
     7    4    5 1    
     8    4   70 1    
     9    5    6 1    
    10    5   65 1    
    11    5   71 1    
    12    6    7 1    
    13    6   72 1    
    14    6   73 1    
    15    7    8 1    
    16    8    9 1    
    17    8   74 1    
    18    8   75 1    
    19    9   10 ar   
    20    9   14 ar   
    21   10   11 ar   
    22   10   76 1    
    23   11   12 ar   
    24   11   48 1    
    25   12   13 ar   
    26   12   77 1    
    27   13   14 ar   
    28   13   15 1    
    29   14   78 1    
    30   15   16 1    
    31   15   79 1    
    32   15   80 1    
    33   16   17 1    
    34   17   18 1    
    35   17   81 1    
    36   17   82 1    
    37   18   19 1    
    38   18   22 1    
    39   18   83 1    
    40   19   20 am   BACKBONE|DICT|INTERRES
    41   19   21 2    
    42   20   84 1    
    43   20   85 1    
    44   22   23 am   BACKBONE|DICT|INTERRES
    45   22   86 1    
    46   23   24 2    
    47   23   25 1    
    48   25   26 1    
    49   25   27 1    
    50   25   87 1    
    51   26   88 1    
    52   26   89 1    
    53   26   90 1    
    54   27   28 am   BACKBONE|DICT|INTERRES
    55   27   91 1    
    56   28   29 2    
    57   28   30 1    
    58   30   31 1    
    59   30   32 1    
    60   30   92 1    
    61   31   93 1    
    62   31   94 1    
    63   31   95 1    
    64   32   33 am   BACKBONE|DICT|INTERRES
    65   32   96 1    
    66   33   34 2    
    67   33   35 1    
    68   35   36 1    
    69   35   37 1    
    70   35   97 1    
    71   36   98 1    
    72   36   99 1    
    73   36  100 1    
    74   37   38 am   BACKBONE|DICT|INTERRES
    75   37  101 1    
    76   38   39 2    
    77   38   40 1    
    78   40   41 1    
    79   40   42 1    
    80   40  102 1    
    81   41  103 1    
    82   41  104 1    
    83   41  105 1    
    84   42   43 am   BACKBONE|DICT|INTERRES
    85   42  106 1    
    86   43   44 2    
    87   43   45 1    
    88   45   46 1    
    89   45   49 1    
    90   45  107 1    
    91   46   47 1    
    92   46  108 1    
    93   46  109 1    
    94   47   48 1    
    95   48  110 1    
    96   48  111 1    
    97   49   50 am   BACKBONE|DICT|INTERRES
    98   49  112 1    
    99   50   51 2    
   100   50   52 1    
   101   52   53 1    
   102   52   54 1    
   103   52  113 1    
   104   53  114 1    
   105   53  115 1    
   106   53  116 1    
   107   54   55 am   BACKBONE|DICT|INTERRES
   108   54  117 1    
   109   55   56 2    
   110   55   57 1    
   111   57   58 1    
   112   57   59 1    
   113   57  118 1    
   114   58  119 1    
   115   58  120 1    
   116   58  121 1    
   117   59   60 am   BACKBONE|DICT|INTERRES
   118   59  122 1    
   119   60   61 2    
   120   60   62 1    
   121   62   63 1    
   122   62   64 1    
   123   62  123 1    
   124   63  124 1    
   125   63  125 1    
   126   63  126 1    
   127   64   65 am   BACKBONE|DICT|INTERRES
   128   64  127 1    
   129   65   66 2    
@<TRIPOS>SUBSTRUCTURE
     1 UNK         1 GROUP             0       ****    0 ROOT    
