@<TRIPOS>MOLECULE
3R135
127   129    1
SMALL
USER_CHARGES


@<TRIPOS>ATOM
      1 CA        -82.8630   23.6198  -68.3774 C.3       0 UNK        -0.1998 
      2 C         -82.7742   24.6802  -69.4649 C.2       0 UNK         0.4909 
      3 O         -83.6661   25.5230  -69.5728 O.2       0 UNK        -0.5240 
      4 N         -81.7005   24.6515  -70.2639 N.am      1 UNK        -0.4739 
      5 CA        -81.4745   25.5604  -71.3932 C.3       1 UNK         0.0864 
      6 C6        -79.9939   25.5498  -71.8536 C.3       11 UNK        -0.0881 
      7 S7        -78.8489   26.1217  -70.5525 S.3       11 UNK        -0.2682 
      8 C8        -78.9980   27.9340  -70.6783 C.3       11 UNK         0.0289 
      9 C9        -78.2716   28.4978  -71.8913 C.ar      11 UNK        -0.0687 
     10 C10       -78.9627   28.7477  -73.0805 C.ar      11 UNK        -0.0823 
     11 C11       -78.3032   29.2889  -74.1879 C.ar      11 UNK        -0.0830 
     12 C12       -76.9412   29.5944  -74.0958 C.ar      11 UNK        -0.1021 
     13 C13       -76.2427   29.3608  -72.9067 C.ar      11 UNK        -0.0753 
     14 C14       -76.9110   28.8063  -71.8113 C.ar      11 UNK        -0.0933 
     15 C15       -74.7679   29.7108  -72.7983 C.3       11 UNK         0.0166 
     16 S16       -74.5373   31.4740  -72.4264 S.3       11 UNK        -0.2615 
     17 C17       -72.7990   31.5091  -71.8702 C.3       11 UNK        -0.0865 
     18 CA        -71.8035   31.6891  -73.0435 C.3       10 UNK         0.0862 
     19 C         -70.4120   32.1477  -72.5304 C.2       10 UNK         0.5551 
     20 N         -70.1882   33.4508  -72.4336 N.am      10 UNK        -0.7319 
     21 O         -69.5531   31.3396  -72.1817 O.2       10 UNK        -0.5018 
     22 N         -71.6980   30.4600  -73.8392 N.am      10 UNK        -0.4509 
     23 C         -71.2907   30.4025  -75.1088 C.2       10 UNK         0.4899 
     24 O         -71.0526   31.4003  -75.7906 O.2       10 UNK        -0.4839 
     25 CA        -71.1192   29.0134  -75.7515 C.3       9 UNK         0.0222 
     26 CB        -69.6351   28.6001  -75.7683 C.3       9 UNK        -0.1966 
     27 N         -71.9556   27.9285  -75.2150 N.am      9 UNK        -0.4218 
     28 C         -71.9222   27.3287  -74.0150 C.2       9 UNK         0.5020 
     29 O         -71.2699   27.7433  -73.0568 O.2       9 UNK        -0.5274 
     30 CA        -72.7407   26.0311  -73.8614 C.3       8 UNK         0.0270 
     31 CB        -74.1670   26.3189  -73.3693 C.3       8 UNK        -0.1976 
     32 N         -72.8075   25.2484  -75.0981 N.am      8 UNK        -0.4313 
     33 C         -71.7619   24.6458  -75.6837 C.2       8 UNK         0.5041 
     34 O         -70.6272   24.6155  -75.2057 O.2       8 UNK        -0.5577 
     35 CA        -72.0226   23.9847  -77.0454 C.3       7 UNK         0.0284 
     36 CB        -72.6201   22.5790  -76.8700 C.3       7 UNK        -0.1958 
     37 N         -72.9098   24.8048  -77.8730 N.am      7 UNK        -0.4454 
     38 C         -72.5091   25.8737  -78.5761 C.2       7 UNK         0.5089 
     39 O         -71.3364   26.2378  -78.6621 O.2       7 UNK        -0.5125 
     40 CA        -73.5992   26.6832  -79.3022 C.3       6 UNK         0.0408 
     41 CB        -73.7817   26.1685  -80.7387 C.3       6 UNK        -0.1791 
     42 N         -74.8926   26.6689  -78.6126 N.am      6 UNK        -0.4762 
     43 C         -75.1356   27.2715  -77.4390 C.2       6 UNK         0.5007 
     44 O         -74.2943   27.9195  -76.8187 O.2       6 UNK        -0.5032 
     45 CA        -76.5400   27.0787  -76.8338 C.3       5 UNK         0.0783 
     46 C46       -77.5015   28.1729  -77.3538 C.3       11 UNK        -0.0857 
     47 S47       -79.1410   28.1071  -76.5540 S.3       11 UNK        -0.2512 
     48 C48       -79.0791   29.5672  -75.4672 C.3       11 UNK         0.0225 
     49 N         -77.0721   25.7278  -77.0509 N.am      5 UNK        -0.4615 
     50 C         -76.5026   24.5894  -76.6320 C.2       4 UNK         0.5053 
     51 O         -75.4002   24.5499  -76.0830 O.2       4 UNK        -0.5105 
     52 CA        -77.2661   23.2776  -76.9074 C.3       4 UNK         0.0263 
     53 CB        -76.9487   22.1859  -75.8629 C.3       4 UNK        -0.1981 
     54 N         -78.7195   23.4466  -77.0636 N.am      4 UNK        -0.4224 
     55 C         -79.5833   23.8923  -76.1394 C.2       3 UNK         0.4895 
     56 O         -79.2666   24.2495  -75.0011 O.2       3 UNK        -0.5091 
     57 CA        -81.0565   23.9344  -76.5608 C.3       3 UNK         0.0250 
     58 CB        -81.6735   22.5216  -76.5294 C.3       3 UNK        -0.1996 
     59 N         -81.7559   24.8160  -75.6347 N.am      3 UNK        -0.4254 
     60 C         -82.9863   25.3202  -75.7663 C.2       2 UNK         0.5004 
     61 O         -83.7004   25.1143  -76.7492 O.2       2 UNK        -0.5226 
     62 CA        -83.5078   26.2262  -74.6284 C.3       2 UNK         0.0269 
     63 CB        -84.9787   25.9175  -74.2752 C.3       2 UNK        -0.1926 
     64 N         -82.6735   26.2495  -73.4130 N.am      2 UNK        -0.4687 
     65 C         -82.4110   25.2329  -72.5751 C.2       1 UNK         0.5165 
     66 O         -82.8324   24.0837  -72.7299 O.2       1 UNK        -0.5079 
     67 H67       -82.0011   22.9528  -68.3873 H         1 UNK         0.0900 
     68 H68       -82.9152   24.0915  -67.3965 H         1 UNK         0.0900 
     69 H69       -83.7601   23.0167  -68.5145 H         1 UNK         0.0900 
     70 H70       -81.0031   23.9322  -70.1375 H         1 UNK         0.2959 
     71 H71       -81.7259   26.5680  -71.0555 H         1 UNK         0.1079 
     72 H72       -79.8457   26.1586  -72.7459 H         1 UNK         0.0837 
     73 H73       -79.6963   24.5398  -72.1430 H         1 UNK         0.0837 
     74 H74       -78.5833   28.3768  -69.7715 H         1 UNK         0.0685 
     75 H75       -80.0497   28.2217  -70.6939 H         1 UNK         0.0685 
     76 H76       -80.0185   28.5264  -73.1454 H         1 UNK         0.1434 
     77 H77       -76.4245   30.0261  -74.9422 H         1 UNK         0.1329 
     78 H78       -76.3750   28.6248  -70.8896 H         1 UNK         0.1335 
     79 H79       -74.2948   29.1121  -72.0194 H         1 UNK         0.0680 
     80 H80       -74.2641   29.4674  -73.7343 H         1 UNK         0.0680 
     81 H81       -72.5663   30.6149  -71.2889 H         1 UNK         0.1032 
     82 H82       -72.7170   32.3439  -71.1710 H         1 UNK         0.1032 
     83 H83       -72.1892   32.4790  -73.6920 H         1 UNK         0.0461 
     84 H84       -70.8891   34.1220  -72.7080 H         1 UNK         0.3453 
     85 H85       -69.2968   33.7712  -72.0882 H         1 UNK         0.3453 
     86 H86       -71.7418   29.5822  -73.3316 H         1 UNK         0.2984 
     87 H87       -71.4369   29.1216  -76.7899 H         1 UNK         0.0554 
     88 H88       -69.0249   29.3542  -76.2671 H         1 UNK         0.0847 
     89 H89       -69.4929   27.6612  -76.3043 H         1 UNK         0.0847 
     90 H90       -69.2370   28.4758  -74.7607 H         1 UNK         0.0847 
     91 H91       -72.6588   27.5958  -75.8697 H         1 UNK         0.3141 
     92 H92       -72.2415   25.4156  -73.1101 H         1 UNK         0.0743 
     93 H93       -74.1510   26.7961  -72.3897 H         1 UNK         0.0784 
     94 H94       -74.7059   26.9749  -74.0527 H         1 UNK         0.0784 
     95 H95       -74.7455   25.4004  -73.2670 H         1 UNK         0.0784 
     96 H96       -73.7260   25.1418  -75.5246 H         1 UNK         0.3213 
     97 H97       -71.0625   23.8796  -77.5561 H         1 UNK         0.0855 
     98 H98       -73.5726   22.6032  -76.3410 H         1 UNK         0.0814 
     99 H99       -71.9470   21.9418  -76.2950 H         1 UNK         0.0814 
    100 H100      -72.7821   22.0933  -77.8323 H         1 UNK         0.0814 
    101 H101      -73.8995   24.6095  -77.8120 H         1 UNK         0.3105 
    102 H102      -73.2581   27.7195  -79.3546 H         1 UNK         0.0547 
    103 H103      -72.8372   26.1936  -81.2841 H         1 UNK         0.0837 
    104 H104      -74.1410   25.1389  -80.7585 H         1 UNK         0.0837 
    105 H105      -74.4897   26.7834  -81.2945 H         1 UNK         0.0837 
    106 H106      -75.6422   26.1531  -79.0515 H         1 UNK         0.3020 
    107 H107      -76.4362   27.2052  -75.7540 H         1 UNK         0.1245 
    108 H108      -77.6507   28.0689  -78.4302 H         1 UNK         0.0781 
    109 H109      -77.0697   29.1650  -77.2091 H         1 UNK         0.0781 
    110 H110      -80.1013   29.8562  -75.2181 H         1 UNK         0.0836 
    111 H111      -78.6535   30.4184  -76.0007 H         1 UNK         0.0836 
    112 H112      -77.9842   25.6776  -77.4793 H         1 UNK         0.3022 
    113 H113      -76.8995   22.9213  -77.8711 H         1 UNK         0.0747 
    114 H114      -77.4913   21.2645  -76.0735 H         1 UNK         0.0793 
    115 H115      -77.2079   22.5050  -74.8528 H         1 UNK         0.0793 
    116 H116      -75.8866   21.9396  -75.8605 H         1 UNK         0.0793 
    117 H117      -79.0886   23.1828  -77.9675 H         1 UNK         0.3047 
    118 H118      -81.1258   24.3526  -77.5671 H         1 UNK         0.0822 
    119 H119      -82.7136   22.5305  -76.8552 H         1 UNK         0.0807 
    120 H120      -81.6429   22.0949  -75.5258 H         1 UNK         0.0807 
    121 H121      -81.1379   21.8401  -77.1912 H         1 UNK         0.0807 
    122 H122      -81.2101   25.0481  -74.8142 H         1 UNK         0.2946 
    123 H123      -83.4768   27.2397  -75.0324 H         1 UNK         0.1144 
    124 H124      -85.6272   26.0498  -75.1422 H         1 UNK         0.0793 
    125 H125      -85.3478   26.5822  -73.4941 H         1 UNK         0.0793 
    126 H126      -85.1065   24.8909  -73.9307 H         1 UNK         0.0793 
    127 H127      -82.2658   27.1501  -73.2030 H         1 UNK         0.2896 
@<TRIPOS>BOND
     1    1    2 1    
     2    1   67 1    
     3    1   68 1    
     4    1   69 1    
     5    2    3 2    
     6    2    4 am   BACKBONE|DICT|INTERRES
     7    4    5 1    
     8    4   70 1    
     9    5    6 1    
    10    5   65 1    
    11    5   71 1    
    12    6    7 1    
    13    6   72 1    
    14    6   73 1    
    15    7    8 1    
    16    8    9 1    
    17    8   74 1    
    18    8   75 1    
    19    9   10 ar   
    20    9   14 ar   
    21   10   11 ar   
    22   10   76 1    
    23   11   12 ar   
    24   11   48 1    
    25   12   13 ar   
    26   12   77 1    
    27   13   14 ar   
    28   13   15 1    
    29   14   78 1    
    30   15   16 1    
    31   15   79 1    
    32   15   80 1    
    33   16   17 1    
    34   17   18 1    
    35   17   81 1    
    36   17   82 1    
    37   18   19 1    
    38   18   22 1    
    39   18   83 1    
    40   19   20 am   BACKBONE|DICT|INTERRES
    41   19   21 2    
    42   20   84 1    
    43   20   85 1    
    44   22   23 am   BACKBONE|DICT|INTERRES
    45   22   86 1    
    46   23   24 2    
    47   23   25 1    
    48   25   26 1    
    49   25   27 1    
    50   25   87 1    
    51   26   88 1    
    52   26   89 1    
    53   26   90 1    
    54   27   28 am   BACKBONE|DICT|INTERRES
    55   27   91 1    
    56   28   29 2    
    57   28   30 1    
    58   30   31 1    
    59   30   32 1    
    60   30   92 1    
    61   31   93 1    
    62   31   94 1    
    63   31   95 1    
    64   32   33 am   BACKBONE|DICT|INTERRES
    65   32   96 1    
    66   33   34 2    
    67   33   35 1    
    68   35   36 1    
    69   35   37 1    
    70   35   97 1    
    71   36   98 1    
    72   36   99 1    
    73   36  100 1    
    74   37   38 am   BACKBONE|DICT|INTERRES
    75   37  101 1    
    76   38   39 2    
    77   38   40 1    
    78   40   41 1    
    79   40   42 1    
    80   40  102 1    
    81   41  103 1    
    82   41  104 1    
    83   41  105 1    
    84   42   43 am   BACKBONE|DICT|INTERRES
    85   42  106 1    
    86   43   44 2    
    87   43   45 1    
    88   45   46 1    
    89   45   49 1    
    90   45  107 1    
    91   46   47 1    
    92   46  108 1    
    93   46  109 1    
    94   47   48 1    
    95   48  110 1    
    96   48  111 1    
    97   49   50 am   BACKBONE|DICT|INTERRES
    98   49  112 1    
    99   50   51 2    
   100   50   52 1    
   101   52   53 1    
   102   52   54 1    
   103   52  113 1    
   104   53  114 1    
   105   53  115 1    
   106   53  116 1    
   107   54   55 am   BACKBONE|DICT|INTERRES
   108   54  117 1    
   109   55   56 2    
   110   55   57 1    
   111   57   58 1    
   112   57   59 1    
   113   57  118 1    
   114   58  119 1    
   115   58  120 1    
   116   58  121 1    
   117   59   60 am   BACKBONE|DICT|INTERRES
   118   59  122 1    
   119   60   61 2    
   120   60   62 1    
   121   62   63 1    
   122   62   64 1    
   123   62  123 1    
   124   63  124 1    
   125   63  125 1    
   126   63  126 1    
   127   64   65 am   BACKBONE|DICT|INTERRES
   128   64  127 1    
   129   65   66 2    
@<TRIPOS>SUBSTRUCTURE
     1 UNK         1 GROUP             0       ****    0 ROOT    
