@<TRIPOS>MOLECULE
3R135
127   129    1
SMALL
USER_CHARGES


@<TRIPOS>ATOM
      1 CA        -80.9012   23.9303  -69.8133 C.3       0 UNK        -0.1998 
      2 C         -81.8947   24.8222  -70.5417 C.2       0 UNK         0.4909 
      3 O         -83.0993   24.5755  -70.4806 O.2       0 UNK        -0.5240 
      4 N         -81.3991   25.8537  -71.2370 N.am      1 UNK        -0.4739 
      5 CA        -82.2082   26.8365  -71.9773 C.3       1 UNK         0.0864 
      6 C6        -81.5063   28.2164  -72.0511 C.3       11 UNK        -0.0881 
      7 S7        -81.2029   28.9094  -70.3894 S.3       11 UNK        -0.2682 
      8 C8        -79.9642   30.2034  -70.7450 C.3       11 UNK         0.0289 
      9 C9        -78.6260   29.6961  -71.2846 C.ar      11 UNK        -0.0687 
     10 C10       -78.1290   28.4244  -70.9723 C.ar      11 UNK        -0.0823 
     11 C11       -76.9111   27.9845  -71.4985 C.ar      11 UNK        -0.0830 
     12 C12       -76.1589   28.8465  -72.3004 C.ar      11 UNK        -0.1021 
     13 C13       -76.6238   30.1308  -72.5986 C.ar      11 UNK        -0.0753 
     14 C14       -77.8614   30.5424  -72.0941 C.ar      11 UNK        -0.0933 
     15 C15       -75.7765   31.1020  -73.4130 C.3       11 UNK         0.0166 
     16 S16       -75.0899   30.3704  -74.9353 S.3       11 UNK        -0.2615 
     17 C17       -74.2172   31.8178  -75.6346 C.3       11 UNK        -0.0865 
     18 CA        -72.6853   31.8456  -75.3806 C.3       10 UNK         0.0862 
     19 C         -72.3299   32.1523  -73.8979 C.2       10 UNK         0.5551 
     20 N         -72.4463   33.4076  -73.4857 N.am      10 UNK        -0.7319 
     21 O         -71.9877   31.2702  -73.1131 O.2       10 UNK        -0.5018 
     22 N         -72.0318   30.6393  -75.9025 N.am      10 UNK        -0.4509 
     23 C         -70.7195   30.5169  -76.1368 C.2       10 UNK         0.4899 
     24 O         -69.9076   31.4351  -76.0067 O.2       10 UNK        -0.4839 
     25 CA        -70.2562   29.1311  -76.6181 C.3       9 UNK         0.0222 
     26 CB        -68.7249   29.0104  -76.7778 C.3       9 UNK        -0.1966 
     27 N         -70.8039   28.0535  -75.7872 N.am      9 UNK        -0.4218 
     28 C         -70.5247   27.7813  -74.5004 C.2       9 UNK         0.5020 
     29 O         -69.6963   28.4004  -73.8316 O.2       9 UNK        -0.5274 
     30 CA        -71.2955   26.6247  -73.8253 C.3       8 UNK         0.0270 
     31 CB        -72.2824   27.1854  -72.7876 C.3       8 UNK        -0.1976 
     32 N         -72.0312   25.7702  -74.7623 N.am      8 UNK        -0.4313 
     33 C         -71.4685   24.9559  -75.6698 C.2       8 UNK         0.5041 
     34 O         -70.2613   24.7161  -75.7086 O.2       8 UNK        -0.5577 
     35 CA        -72.3853   24.3413  -76.7491 C.3       7 UNK         0.0284 
     36 CB        -72.6464   22.8571  -76.4482 C.3       7 UNK        -0.1958 
     37 N         -73.6699   25.0318  -76.9125 N.am      7 UNK        -0.4454 
     38 C         -73.8303   26.3258  -77.2354 C.2       7 UNK         0.5089 
     39 O         -72.8983   27.0669  -77.5482 O.2       7 UNK        -0.5125 
     40 CA        -75.2467   26.9212  -77.1143 C.3       6 UNK         0.0408 
     41 CB        -75.8578   27.1338  -78.5066 C.3       6 UNK        -0.1791 
     42 N         -76.1671   26.1296  -76.2888 N.am      6 UNK        -0.4762 
     43 C         -75.9872   25.8174  -74.9930 C.2       6 UNK         0.5007 
     44 O         -75.0172   26.1998  -74.3380 O.2       6 UNK        -0.5032 
     45 CA        -77.0063   24.8513  -74.3472 C.3       5 UNK         0.0783 
     46 C46       -77.9705   25.5868  -73.3751 C.3       11 UNK        -0.0857 
     47 S47       -77.5967   25.2711  -71.6173 S.3       11 UNK        -0.2512 
     48 C48       -76.3972   26.5821  -71.2002 C.3       11 UNK         0.0225 
     49 N         -77.7300   24.0535  -75.3483 N.am      5 UNK        -0.4615 
     50 C         -77.1661   23.0936  -76.0998 C.2       4 UNK         0.5053 
     51 O         -75.9760   22.7900  -76.0187 O.2       4 UNK        -0.5105 
     52 CA        -78.0488   22.3586  -77.1270 C.3       4 UNK         0.0263 
     53 CB        -78.4827   20.9920  -76.5731 C.3       4 UNK        -0.1981 
     54 N         -79.2388   23.1073  -77.5356 N.am      4 UNK        -0.4224 
     55 C         -79.2319   24.2525  -78.2334 C.2       3 UNK         0.4895 
     56 O         -78.2102   24.7771  -78.6740 O.2       3 UNK        -0.5091 
     57 CA        -80.5892   24.9581  -78.4270 C.3       3 UNK         0.0250 
     58 CB        -81.2087   24.5698  -79.7789 C.3       3 UNK        -0.1996 
     59 N         -81.5568   24.6948  -77.3513 N.am      3 UNK        -0.4254 
     60 C         -81.3500   24.9818  -76.0582 C.2       2 UNK         0.5004 
     61 O         -80.3203   25.5160  -75.6407 O.2       2 UNK        -0.5226 
     62 CA        -82.4288   24.5158  -75.0681 C.3       2 UNK         0.0269 
     63 CB        -82.3888   22.9849  -74.9139 C.3       2 UNK        -0.1926 
     64 N         -82.2220   25.1139  -73.7491 N.am      2 UNK        -0.4687 
     65 C         -82.6186   26.3400  -73.3842 C.2       1 UNK         0.5165 
     66 O         -83.2906   27.0731  -74.1122 O.2       1 UNK        -0.5079 
     67 H67       -81.1986   23.8095  -68.7720 H         1 UNK         0.0900 
     68 H68       -79.8940   24.3455  -69.8279 H         1 UNK         0.0900 
     69 H69       -80.8709   22.9444  -70.2763 H         1 UNK         0.0900 
     70 H70       -80.4009   26.0092  -71.2537 H         1 UNK         0.2959 
     71 H71       -83.1463   26.9809  -71.4363 H         1 UNK         0.1079 
     72 H72       -80.5639   28.1328  -72.5955 H         1 UNK         0.0837 
     73 H73       -82.1158   28.9362  -72.6011 H         1 UNK         0.0837 
     74 H74       -79.7743   30.7595  -69.8263 H         1 UNK         0.0685 
     75 H75       -80.4064   30.9105  -71.4487 H         1 UNK         0.0685 
     76 H76       -78.6937   27.7616  -70.3323 H         1 UNK         0.1434 
     77 H77       -75.2068   28.5191  -72.6938 H         1 UNK         0.1329 
     78 H78       -78.2257   31.5358  -72.3183 H         1 UNK         0.1335 
     79 H79       -76.3639   31.9804  -73.6849 H         1 UNK         0.0680 
     80 H80       -74.9604   31.4554  -72.7822 H         1 UNK         0.0680 
     81 H81       -74.6822   32.7392  -75.2796 H         1 UNK         0.1032 
     82 H82       -74.3958   31.8118  -76.7109 H         1 UNK         0.1032 
     83 H83       -72.2896   32.6793  -75.9649 H         1 UNK         0.0461 
     84 H84       -72.7263   34.1428  -74.1159 H         1 UNK         0.3453 
     85 H85       -72.2322   33.6277  -72.5255 H         1 UNK         0.3453 
     86 H86       -72.6236   29.8272  -75.9968 H         1 UNK         0.2984 
     87 H87       -70.6937   28.9939  -77.6082 H         1 UNK         0.0554 
     88 H88       -68.3540   29.7278  -77.5108 H         1 UNK         0.0847 
     89 H89       -68.4392   28.0171  -77.1236 H         1 UNK         0.0847 
     90 H90       -68.1986   29.2052  -75.8432 H         1 UNK         0.0847 
     91 H91       -71.5179   27.4955  -76.2478 H         1 UNK         0.3141 
     92 H92       -70.5638   26.0029  -73.3057 H         1 UNK         0.0743 
     93 H93       -71.7617   27.7667  -72.0254 H         1 UNK         0.0784 
     94 H94       -73.0152   27.8457  -73.2529 H         1 UNK         0.0784 
     95 H95       -72.8227   26.3885  -72.2764 H         1 UNK         0.0784 
     96 H96       -73.0409   25.8847  -74.7699 H         1 UNK         0.3213 
     97 H97       -71.8539   24.4122  -77.7003 H         1 UNK         0.0855 
     98 H98       -73.1863   22.7260  -75.5094 H         1 UNK         0.0814 
     99 H99       -71.7101   22.3034  -76.3664 H         1 UNK         0.0814 
    100 H100      -73.2318   22.3872  -77.2388 H         1 UNK         0.0814 
    101 H101      -74.4956   24.5006  -76.6651 H         1 UNK         0.3105 
    102 H102      -75.1444   27.8965  -76.6363 H         1 UNK         0.0547 
    103 H103      -75.2324   27.7936  -79.1096 H         1 UNK         0.0837 
    104 H104      -75.9563   26.1939  -79.0508 H         1 UNK         0.0837 
    105 H105      -76.8449   27.5920  -78.4445 H         1 UNK         0.0837 
    106 H106      -76.9753   25.7466  -76.7623 H         1 UNK         0.3020 
    107 H107      -76.4084   24.1408  -73.7712 H         1 UNK         0.1245 
    108 H108      -78.9901   25.2260  -73.5071 H         1 UNK         0.0781 
    109 H109      -78.0302   26.6588  -73.5726 H         1 UNK         0.0781 
    110 H110      -76.1590   26.5141  -70.1381 H         1 UNK         0.0836 
    111 H111      -75.4657   26.3865  -71.7326 H         1 UNK         0.0836 
    112 H112      -78.7002   24.3086  -75.5019 H         1 UNK         0.3022 
    113 H113      -77.4381   22.1904  -78.0167 H         1 UNK         0.0747 
    114 H114      -77.6162   20.3942  -76.2862 H         1 UNK         0.0793 
    115 H115      -79.0359   20.4186  -77.3173 H         1 UNK         0.0793 
    116 H116      -79.1138   21.0955  -75.6894 H         1 UNK         0.0793 
    117 H117      -80.1289   22.7486  -77.2237 H         1 UNK         0.3047 
    118 H118      -80.3935   26.0326  -78.4354 H         1 UNK         0.0822 
    119 H119      -82.1199   25.1350  -79.9759 H         1 UNK         0.0807 
    120 H120      -81.4545   23.5080  -79.8218 H         1 UNK         0.0807 
    121 H121      -80.5185   24.7777  -80.5981 H         1 UNK         0.0807 
    122 H122      -82.4216   24.2475  -77.6213 H         1 UNK         0.2946 
    123 H123      -83.4072   24.8147  -75.4521 H         1 UNK         0.1144 
    124 H124      -82.5995   22.4835  -75.8593 H         1 UNK         0.0793 
    125 H125      -83.1365   22.6410  -74.1987 H         1 UNK         0.0793 
    126 H126      -81.4137   22.6374  -74.5691 H         1 UNK         0.0793 
    127 H127      -81.6517   24.5954  -73.0982 H         1 UNK         0.2896 
@<TRIPOS>BOND
     1    1    2 1    
     2    1   67 1    
     3    1   68 1    
     4    1   69 1    
     5    2    3 2    
     6    2    4 am   BACKBONE|DICT|INTERRES
     7    4    5 1    
     8    4   70 1    
     9    5    6 1    
    10    5   65 1    
    11    5   71 1    
    12    6    7 1    
    13    6   72 1    
    14    6   73 1    
    15    7    8 1    
    16    8    9 1    
    17    8   74 1    
    18    8   75 1    
    19    9   10 ar   
    20    9   14 ar   
    21   10   11 ar   
    22   10   76 1    
    23   11   12 ar   
    24   11   48 1    
    25   12   13 ar   
    26   12   77 1    
    27   13   14 ar   
    28   13   15 1    
    29   14   78 1    
    30   15   16 1    
    31   15   79 1    
    32   15   80 1    
    33   16   17 1    
    34   17   18 1    
    35   17   81 1    
    36   17   82 1    
    37   18   19 1    
    38   18   22 1    
    39   18   83 1    
    40   19   20 am   BACKBONE|DICT|INTERRES
    41   19   21 2    
    42   20   84 1    
    43   20   85 1    
    44   22   23 am   BACKBONE|DICT|INTERRES
    45   22   86 1    
    46   23   24 2    
    47   23   25 1    
    48   25   26 1    
    49   25   27 1    
    50   25   87 1    
    51   26   88 1    
    52   26   89 1    
    53   26   90 1    
    54   27   28 am   BACKBONE|DICT|INTERRES
    55   27   91 1    
    56   28   29 2    
    57   28   30 1    
    58   30   31 1    
    59   30   32 1    
    60   30   92 1    
    61   31   93 1    
    62   31   94 1    
    63   31   95 1    
    64   32   33 am   BACKBONE|DICT|INTERRES
    65   32   96 1    
    66   33   34 2    
    67   33   35 1    
    68   35   36 1    
    69   35   37 1    
    70   35   97 1    
    71   36   98 1    
    72   36   99 1    
    73   36  100 1    
    74   37   38 am   BACKBONE|DICT|INTERRES
    75   37  101 1    
    76   38   39 2    
    77   38   40 1    
    78   40   41 1    
    79   40   42 1    
    80   40  102 1    
    81   41  103 1    
    82   41  104 1    
    83   41  105 1    
    84   42   43 am   BACKBONE|DICT|INTERRES
    85   42  106 1    
    86   43   44 2    
    87   43   45 1    
    88   45   46 1    
    89   45   49 1    
    90   45  107 1    
    91   46   47 1    
    92   46  108 1    
    93   46  109 1    
    94   47   48 1    
    95   48  110 1    
    96   48  111 1    
    97   49   50 am   BACKBONE|DICT|INTERRES
    98   49  112 1    
    99   50   51 2    
   100   50   52 1    
   101   52   53 1    
   102   52   54 1    
   103   52  113 1    
   104   53  114 1    
   105   53  115 1    
   106   53  116 1    
   107   54   55 am   BACKBONE|DICT|INTERRES
   108   54  117 1    
   109   55   56 2    
   110   55   57 1    
   111   57   58 1    
   112   57   59 1    
   113   57  118 1    
   114   58  119 1    
   115   58  120 1    
   116   58  121 1    
   117   59   60 am   BACKBONE|DICT|INTERRES
   118   59  122 1    
   119   60   61 2    
   120   60   62 1    
   121   62   63 1    
   122   62   64 1    
   123   62  123 1    
   124   63  124 1    
   125   63  125 1    
   126   63  126 1    
   127   64   65 am   BACKBONE|DICT|INTERRES
   128   64  127 1    
   129   65   66 2    
@<TRIPOS>SUBSTRUCTURE
     1 UNK         1 GROUP             0       ****    0 ROOT    
