@<TRIPOS>MOLECULE
3R135
127   129    1
SMALL
USER_CHARGES


@<TRIPOS>ATOM
      1 CA        -80.8744   31.3309  -75.5141 C.3       0 UNK        -0.1998 
      2 C         -81.0767   29.9077  -75.0160 C.2       0 UNK         0.4909 
      3 O         -82.1353   29.3254  -75.2534 O.2       0 UNK        -0.5240 
      4 N         -80.0634   29.3513  -74.3347 N.am      1 UNK        -0.4739 
      5 CA        -80.0401   28.0023  -73.7383 C.3       1 UNK         0.0864 
      6 C6        -81.0916   27.7911  -72.6046 C.3       11 UNK        -0.0881 
      7 S7        -81.2354   29.1864  -71.4269 S.3       11 UNK        -0.2682 
      8 C8        -80.0908   28.7170  -70.0885 C.3       11 UNK         0.0289 
      9 C9        -78.6451   28.6195  -70.5584 C.ar      11 UNK        -0.0687 
     10 C10       -77.9132   27.4524  -70.3222 C.ar      11 UNK        -0.0823 
     11 C11       -76.5946   27.3364  -70.7702 C.ar      11 UNK        -0.0830 
     12 C12       -76.0169   28.3970  -71.4760 C.ar      11 UNK        -0.1021 
     13 C13       -76.7297   29.5765  -71.7058 C.ar      11 UNK        -0.0753 
     14 C14       -78.0383   29.6881  -71.2285 C.ar      11 UNK        -0.0933 
     15 C15       -76.1078   30.7095  -72.5104 C.3       11 UNK         0.0166 
     16 S16       -75.1999   31.8991  -71.4718 S.3       11 UNK        -0.2615 
     17 C17       -73.6252   31.0302  -71.1459 C.3       11 UNK        -0.0865 
     18 CA        -72.4658   31.4945  -72.0648 C.3       10 UNK         0.0862 
     19 C         -71.1266   30.8483  -71.6143 C.2       10 UNK         0.5551 
     20 N         -70.3924   31.5013  -70.7241 N.am      10 UNK        -0.7319 
     21 O         -70.7734   29.7458  -72.0290 O.2       10 UNK        -0.5018 
     22 N         -72.7552   31.2397  -73.4844 N.am      10 UNK        -0.4509 
     23 C         -72.0532   31.7352  -74.5088 C.2       10 UNK         0.4899 
     24 O         -71.1041   32.5107  -74.3785 O.2       10 UNK        -0.4839 
     25 CA        -72.4872   31.2763  -75.9130 C.3       9 UNK         0.0222 
     26 CB        -71.7909   32.0686  -77.0359 C.3       9 UNK        -0.1966 
     27 N         -72.2316   29.8480  -76.1123 N.am      9 UNK        -0.4218 
     28 C         -73.0307   28.8571  -75.6993 C.2       9 UNK         0.5020 
     29 O         -74.0695   29.0358  -75.0592 O.2       9 UNK        -0.5274 
     30 CA        -72.5883   27.4246  -76.0440 C.3       8 UNK         0.0270 
     31 CB        -72.1131   26.6930  -74.7788 C.3       8 UNK        -0.1976 
     32 N         -73.6744   26.6675  -76.6739 N.am      8 UNK        -0.4313 
     33 C         -74.1890   26.9499  -77.8817 C.2       8 UNK         0.5041 
     34 O         -73.7287   27.8228  -78.6213 O.2       8 UNK        -0.5577 
     35 CA        -75.4287   26.1515  -78.3404 C.3       7 UNK         0.0284 
     36 CB        -75.6012   26.1273  -79.8741 C.3       7 UNK        -0.1958 
     37 N         -75.5100   24.7975  -77.7852 N.am      7 UNK        -0.4454 
     38 C         -74.6477   23.7836  -77.9548 C.2       7 UNK         0.5089 
     39 O         -73.6598   23.8379  -78.6891 O.2       7 UNK        -0.5125 
     40 CA        -74.9364   22.4961  -77.1485 C.3       6 UNK         0.0408 
     41 CB        -73.6658   21.6541  -76.9100 C.3       6 UNK        -0.1791 
     42 N         -75.6363   22.7323  -75.8758 N.am      6 UNK        -0.4762 
     43 C         -75.2450   23.5450  -74.8776 C.2       6 UNK         0.5007 
     44 O         -74.2001   24.1944  -74.9200 O.2       6 UNK        -0.5032 
     45 CA        -76.1907   23.7019  -73.6652 C.3       5 UNK         0.0783 
     46 C46       -76.2098   25.1508  -73.1160 C.3       11 UNK        -0.0857 
     47 S47       -74.8697   25.4489  -71.9148 S.3       11 UNK        -0.2512 
     48 C48       -75.8032   26.0648  -70.4764 C.3       11 UNK         0.0225 
     49 N         -77.5433   23.2672  -74.0130 N.am      5 UNK        -0.4615 
     50 C         -78.2188   22.2694  -73.4298 C.2       4 UNK         0.5053 
     51 O         -77.7995   21.6304  -72.4648 O.2       4 UNK        -0.5105 
     52 CA        -79.5882   21.8991  -74.0339 C.3       4 UNK         0.0263 
     53 CB        -80.7275   22.4657  -73.1717 C.3       4 UNK        -0.1981 
     54 N         -79.7592   22.3467  -75.4208 N.am      4 UNK        -0.4224 
     55 C         -79.0391   21.8987  -76.4604 C.2       3 UNK         0.4895 
     56 O         -78.1904   21.0116  -76.3697 O.2       3 UNK        -0.5091 
     57 CA        -79.2396   22.5955  -77.8172 C.3       3 UNK         0.0250 
     58 CB        -80.2263   21.8001  -78.6863 C.3       3 UNK        -0.1996 
     59 N         -79.6835   23.9919  -77.7353 N.am      3 UNK        -0.4254 
     60 C         -79.0451   24.9889  -77.1052 C.2       2 UNK         0.5004 
     61 O         -78.0116   24.8286  -76.4507 O.2       2 UNK        -0.5226 
     62 CA        -79.6375   26.4046  -77.2468 C.3       2 UNK         0.0269 
     63 CB        -81.0830   26.4311  -77.7961 C.3       2 UNK        -0.1926 
     64 N         -79.5604   27.1887  -76.0088 N.am      2 UNK        -0.4687 
     65 C         -80.0993   26.8887  -74.8150 C.2       1 UNK         0.5165 
     66 O         -80.6485   25.8138  -74.5643 O.2       1 UNK        -0.5079 
     67 H67       -79.8983   31.7274  -75.2349 H         1 UNK         0.0900 
     68 H68       -81.6378   31.9856  -75.0946 H         1 UNK         0.0900 
     69 H69       -80.9563   31.3637  -76.6002 H         1 UNK         0.0900 
     70 H70       -79.2289   29.8978  -74.1761 H         1 UNK         0.2959 
     71 H71       -79.0536   27.8970  -73.2853 H         1 UNK         0.1079 
     72 H72       -82.0818   27.6411  -73.0388 H         1 UNK         0.0837 
     73 H73       -80.8699   26.8783  -72.0486 H         1 UNK         0.0837 
     74 H74       -80.1519   29.4641  -69.2962 H         1 UNK         0.0685 
     75 H75       -80.4278   27.7754  -69.6520 H         1 UNK         0.0685 
     76 H76       -78.3721   26.6313  -69.7882 H         1 UNK         0.1434 
     77 H77       -75.0124   28.2933  -71.8598 H         1 UNK         0.1329 
     78 H78       -78.5992   30.5955  -71.4066 H         1 UNK         0.1335 
     79 H79       -75.4481   30.3079  -73.2777 H         1 UNK         0.0680 
     80 H80       -76.8903   31.2492  -73.0457 H         1 UNK         0.0680 
     81 H81       -73.7573   29.9528  -71.2165 H         1 UNK         0.1032 
     82 H82       -73.3717   31.2224  -70.1015 H         1 UNK         0.1032 
     83 H83       -72.3663   32.5763  -71.9512 H         1 UNK         0.0461 
     84 H84       -70.6778   32.4020  -70.3719 H         1 UNK         0.3453 
     85 H85       -69.5279   31.0912  -70.4068 H         1 UNK         0.3453 
     86 H86       -73.4700   30.5527  -73.6913 H         1 UNK         0.2984 
     87 H87       -73.5603   31.4612  -75.9995 H         1 UNK         0.0554 
     88 H88       -72.1599   31.7719  -78.0180 H         1 UNK         0.0847 
     89 H89       -70.7097   31.9244  -77.0261 H         1 UNK         0.0847 
     90 H90       -71.9777   33.1383  -76.9321 H         1 UNK         0.0847 
     91 H91       -71.3802   29.6102  -76.6012 H         1 UNK         0.3141 
     92 H92       -71.7555   27.4652  -76.7492 H         1 UNK         0.0743 
     93 H93       -72.9148   26.5997  -74.0448 H         1 UNK         0.0784 
     94 H94       -71.7551   25.6896  -75.0103 H         1 UNK         0.0784 
     95 H95       -71.2937   27.2300  -74.2989 H         1 UNK         0.0784 
     96 H96       -74.0763   25.9146  -76.1253 H         1 UNK         0.3213 
     97 H97       -76.2837   26.6887  -77.9276 H         1 UNK         0.0855 
     98 H98       -75.6977   27.1375  -80.2739 H         1 UNK         0.0814 
     99 H99       -76.4978   25.5795  -80.1642 H         1 UNK         0.0814 
    100 H100      -74.7480   25.6632  -80.3696 H         1 UNK         0.0814 
    101 H101      -76.3000   24.6438  -77.1610 H         1 UNK         0.3105 
    102 H102      -75.6165   21.9031  -77.7615 H         1 UNK         0.0547 
    103 H103      -73.2094   21.3547  -77.8542 H         1 UNK         0.0837 
    104 H104      -72.9143   22.2090  -76.3474 H         1 UNK         0.0837 
    105 H105      -73.8919   20.7414  -76.3590 H         1 UNK         0.0837 
    106 H106      -76.5113   22.2319  -75.7664 H         1 UNK         0.3020 
    107 H107      -75.7892   23.0400  -72.8945 H         1 UNK         0.1245 
    108 H108      -77.1620   25.3417  -72.6184 H         1 UNK         0.0781 
    109 H109      -76.1511   25.8923  -73.9158 H         1 UNK         0.0781 
    110 H110      -75.1033   26.2688  -69.6653 H         1 UNK         0.0836 
    111 H111      -76.4613   25.2690  -70.1238 H         1 UNK         0.0836 
    112 H112      -77.9552   23.7473  -74.8086 H         1 UNK         0.3022 
    113 H113      -79.6623   20.8096  -74.0251 H         1 UNK         0.0747 
    114 H114      -81.7036   22.1665  -73.5539 H         1 UNK         0.0793 
    115 H115      -80.6573   22.1021  -72.1456 H         1 UNK         0.0793 
    116 H116      -80.7005   23.5550  -73.1320 H         1 UNK         0.0793 
    117 H117      -80.4092   23.1050  -75.5761 H         1 UNK         0.3047 
    118 H118      -78.2696   22.5977  -78.3192 H         1 UNK         0.0822 
    119 H119      -80.2939   22.2141  -79.6926 H         1 UNK         0.0807 
    120 H120      -81.2289   21.7933  -78.2564 H         1 UNK         0.0807 
    121 H121      -79.9085   20.7612  -78.7878 H         1 UNK         0.0807 
    122 H122      -80.5292   24.2198  -78.2381 H         1 UNK         0.2946 
    123 H123      -79.0015   26.9159  -77.9710 H         1 UNK         0.1144 
    124 H124      -81.1391   26.0204  -78.8049 H         1 UNK         0.0793 
    125 H125      -81.4587   27.4531  -77.8542 H         1 UNK         0.0793 
    126 H126      -81.7708   25.8681  -77.1634 H         1 UNK         0.0793 
    127 H127      -79.1096   28.0886  -76.0925 H         1 UNK         0.2896 
@<TRIPOS>BOND
     1    1    2 1    
     2    1   67 1    
     3    1   68 1    
     4    1   69 1    
     5    2    3 2    
     6    2    4 am   BACKBONE|DICT|INTERRES
     7    4    5 1    
     8    4   70 1    
     9    5    6 1    
    10    5   65 1    
    11    5   71 1    
    12    6    7 1    
    13    6   72 1    
    14    6   73 1    
    15    7    8 1    
    16    8    9 1    
    17    8   74 1    
    18    8   75 1    
    19    9   10 ar   
    20    9   14 ar   
    21   10   11 ar   
    22   10   76 1    
    23   11   12 ar   
    24   11   48 1    
    25   12   13 ar   
    26   12   77 1    
    27   13   14 ar   
    28   13   15 1    
    29   14   78 1    
    30   15   16 1    
    31   15   79 1    
    32   15   80 1    
    33   16   17 1    
    34   17   18 1    
    35   17   81 1    
    36   17   82 1    
    37   18   19 1    
    38   18   22 1    
    39   18   83 1    
    40   19   20 am   BACKBONE|DICT|INTERRES
    41   19   21 2    
    42   20   84 1    
    43   20   85 1    
    44   22   23 am   BACKBONE|DICT|INTERRES
    45   22   86 1    
    46   23   24 2    
    47   23   25 1    
    48   25   26 1    
    49   25   27 1    
    50   25   87 1    
    51   26   88 1    
    52   26   89 1    
    53   26   90 1    
    54   27   28 am   BACKBONE|DICT|INTERRES
    55   27   91 1    
    56   28   29 2    
    57   28   30 1    
    58   30   31 1    
    59   30   32 1    
    60   30   92 1    
    61   31   93 1    
    62   31   94 1    
    63   31   95 1    
    64   32   33 am   BACKBONE|DICT|INTERRES
    65   32   96 1    
    66   33   34 2    
    67   33   35 1    
    68   35   36 1    
    69   35   37 1    
    70   35   97 1    
    71   36   98 1    
    72   36   99 1    
    73   36  100 1    
    74   37   38 am   BACKBONE|DICT|INTERRES
    75   37  101 1    
    76   38   39 2    
    77   38   40 1    
    78   40   41 1    
    79   40   42 1    
    80   40  102 1    
    81   41  103 1    
    82   41  104 1    
    83   41  105 1    
    84   42   43 am   BACKBONE|DICT|INTERRES
    85   42  106 1    
    86   43   44 2    
    87   43   45 1    
    88   45   46 1    
    89   45   49 1    
    90   45  107 1    
    91   46   47 1    
    92   46  108 1    
    93   46  109 1    
    94   47   48 1    
    95   48  110 1    
    96   48  111 1    
    97   49   50 am   BACKBONE|DICT|INTERRES
    98   49  112 1    
    99   50   51 2    
   100   50   52 1    
   101   52   53 1    
   102   52   54 1    
   103   52  113 1    
   104   53  114 1    
   105   53  115 1    
   106   53  116 1    
   107   54   55 am   BACKBONE|DICT|INTERRES
   108   54  117 1    
   109   55   56 2    
   110   55   57 1    
   111   57   58 1    
   112   57   59 1    
   113   57  118 1    
   114   58  119 1    
   115   58  120 1    
   116   58  121 1    
   117   59   60 am   BACKBONE|DICT|INTERRES
   118   59  122 1    
   119   60   61 2    
   120   60   62 1    
   121   62   63 1    
   122   62   64 1    
   123   62  123 1    
   124   63  124 1    
   125   63  125 1    
   126   63  126 1    
   127   64   65 am   BACKBONE|DICT|INTERRES
   128   64  127 1    
   129   65   66 2    
@<TRIPOS>SUBSTRUCTURE
     1 UNK         1 GROUP             0       ****    0 ROOT    
