@<TRIPOS>MOLECULE
3R135
127   129    1
SMALL
USER_CHARGES


@<TRIPOS>ATOM
      1 CA        -77.8387   22.1542  -69.0259 C.3       0 UNK        -0.1998 
      2 C         -78.9226   23.0926  -69.5340 C.2       0 UNK         0.4909 
      3 O         -79.9949   23.1725  -68.9342 O.2       0 UNK        -0.5240 
      4 N         -78.6527   23.8024  -70.6376 N.am      1 UNK        -0.4739 
      5 CA        -79.5721   24.7661  -71.2608 C.3       1 UNK         0.0864 
      6 C6        -78.8323   25.7291  -72.2235 C.3       11 UNK        -0.0881 
      7 S7        -77.5739   26.7225  -71.3566 S.3       11 UNK        -0.2682 
      8 C8        -78.4461   28.3062  -71.1523 C.3       11 UNK         0.0289 
      9 C9        -78.3394   29.1742  -72.3973 C.ar      11 UNK        -0.0687 
     10 C10       -79.3846   29.2318  -73.3252 C.ar      11 UNK        -0.0823 
     11 C11       -79.2859   30.0505  -74.4556 C.ar      11 UNK        -0.0830 
     12 C12       -78.1370   30.8241  -74.6481 C.ar      11 UNK        -0.1021 
     13 C13       -77.0903   30.7764  -73.7234 C.ar      11 UNK        -0.0753 
     14 C14       -77.1935   29.9460  -72.6052 C.ar      11 UNK        -0.0933 
     15 C15       -75.8540   31.6352  -73.9159 C.3       11 UNK         0.0166 
     16 S16       -74.5960   30.7571  -74.8846 S.3       11 UNK        -0.2615 
     17 C17       -73.2041   31.9353  -74.7524 C.3       11 UNK        -0.0865 
     18 CA        -72.0207   31.4000  -73.9048 C.3       10 UNK         0.0862 
     19 C         -72.3621   31.3104  -72.3859 C.2       10 UNK         0.5551 
     20 N         -72.2633   30.1541  -71.7388 N.am      10 UNK        -0.7319 
     21 O         -72.7138   32.3198  -71.7805 O.2       10 UNK        -0.5018 
     22 N         -71.4778   30.1705  -74.4933 N.am      10 UNK        -0.4509 
     23 C         -70.2495   29.6836  -74.2893 C.2       10 UNK         0.4899 
     24 O         -69.3734   30.2701  -73.6520 O.2       10 UNK        -0.4839 
     25 CA        -69.9734   28.2987  -74.9028 C.3       9 UNK         0.0222 
     26 CB        -68.7446   27.5976  -74.2855 C.3       9 UNK        -0.1966 
     27 N         -71.1534   27.4227  -74.8743 N.am      9 UNK        -0.4218 
     28 C         -71.8078   26.9639  -73.7939 C.2       9 UNK         0.5020 
     29 O         -71.4898   27.2607  -72.6410 O.2       9 UNK        -0.5274 
     30 CA        -73.0408   26.0542  -74.0090 C.3       8 UNK         0.0270 
     31 CB        -74.2587   26.6002  -73.2400 C.3       8 UNK        -0.1976 
     32 N         -73.4289   25.8592  -75.4098 N.am      8 UNK        -0.4313 
     33 C         -72.7419   25.1876  -76.3441 C.2       8 UNK         0.5041 
     34 O         -71.7256   24.5347  -76.1078 O.2       8 UNK        -0.5577 
     35 CA        -73.2230   25.3337  -77.8010 C.3       7 UNK         0.0284 
     36 CB        -74.1540   24.1752  -78.1910 C.3       7 UNK        -0.1958 
     37 N         -73.8902   26.6133  -78.0747 N.am      7 UNK        -0.4454 
     38 C         -73.3418   27.8306  -77.9493 C.2       7 UNK         0.5089 
     39 O         -72.1699   28.0134  -77.6189 O.2       7 UNK        -0.5125 
     40 CA        -74.2553   29.0539  -78.1655 C.3       6 UNK         0.0408 
     41 CB        -74.3122   29.4606  -79.6506 C.3       6 UNK        -0.1791 
     42 N         -75.5947   28.9092  -77.5684 N.am      6 UNK        -0.4762 
     43 C         -76.5849   28.0909  -77.9514 C.2       6 UNK         0.5007 
     44 O         -76.5361   27.3910  -78.9663 O.2       6 UNK        -0.5032 
     45 CA        -77.8039   27.9722  -77.0155 C.3       5 UNK         0.0783 
     46 C46       -78.9931   28.8162  -77.5356 C.3       11 UNK        -0.0857 
     47 S47       -80.4938   28.6286  -76.5097 S.3       11 UNK        -0.2512 
     48 C48       -80.4298   30.1126  -75.4574 C.3       11 UNK         0.0225 
     49 N         -78.1593   26.5606  -76.8572 N.am      5 UNK        -0.4615 
     50 C         -77.3968   25.6349  -76.2678 C.2       4 UNK         0.5053 
     51 O         -76.3130   25.8938  -75.7437 O.2       4 UNK        -0.5105 
     52 CA        -77.9272   24.1866  -76.2752 C.3       4 UNK         0.0263 
     53 CB        -77.1386   23.2626  -75.3262 C.3       4 UNK        -0.1981 
     54 N         -79.3540   24.1005  -75.9473 N.am      4 UNK        -0.4224 
     55 C         -80.3748   24.3433  -76.7826 C.2       3 UNK         0.4895 
     56 O         -80.2143   24.7157  -77.9456 O.2       3 UNK        -0.5091 
     57 CA        -81.8085   24.1977  -76.2285 C.3       3 UNK         0.0250 
     58 CB        -82.7529   23.5038  -77.2327 C.3       3 UNK        -0.1996 
     59 N         -81.8852   23.5690  -74.9014 N.am      3 UNK        -0.4254 
     60 C         -81.5739   22.3104  -74.5576 C.2       2 UNK         0.5004 
     61 O         -81.2006   21.4492  -75.3550 O.2       2 UNK        -0.5226 
     62 CA        -81.6195   21.9997  -73.0489 C.3       2 UNK         0.0269 
     63 CB        -81.3821   20.5090  -72.7419 C.3       2 UNK        -0.1926 
     64 N         -80.6286   22.7950  -72.3157 N.am      2 UNK        -0.4687 
     65 C         -80.7536   24.0899  -71.9880 C.2       1 UNK         0.5165 
     66 O         -81.7487   24.7594  -72.2704 O.2       1 UNK        -0.5079 
     67 H67       -77.5527   22.4271  -68.0106 H         1 UNK         0.0900 
     68 H68       -76.9456   22.1867  -69.6496 H         1 UNK         0.0900 
     69 H69       -78.2063   21.1285  -69.0127 H         1 UNK         0.0900 
     70 H70       -77.7434   23.7230  -71.0706 H         1 UNK         0.2959 
     71 H71       -80.0153   25.3665  -70.4627 H         1 UNK         0.1079 
     72 H72       -78.3348   25.1756  -73.0197 H         1 UNK         0.0837 
     73 H73       -79.5338   26.3985  -72.7235 H         1 UNK         0.0837 
     74 H74       -79.4899   28.1264  -70.8901 H         1 UNK         0.0685 
     75 H75       -78.0097   28.8362  -70.3043 H         1 UNK         0.0685 
     76 H76       -80.2778   28.6423  -73.1703 H         1 UNK         0.1434 
     77 H77       -78.0569   31.4672  -75.5141 H         1 UNK         0.1329 
     78 H78       -76.3825   29.9047  -71.8906 H         1 UNK         0.1335 
     79 H79       -76.1160   32.5670  -74.4197 H         1 UNK         0.0680 
     80 H80       -75.4397   31.9129  -72.9452 H         1 UNK         0.0680 
     81 H81       -72.8556   32.1518  -75.7634 H         1 UNK         0.1032 
     82 H82       -73.5527   32.8930  -74.3611 H         1 UNK         0.1032 
     83 H83       -71.2311   32.1510  -73.9704 H         1 UNK         0.0461 
     84 H84       -71.9589   29.3124  -72.2115 H         1 UNK         0.3453 
     85 H85       -72.4835   30.1227  -70.7566 H         1 UNK         0.3453 
     86 H86       -72.1355   29.6122  -75.0173 H         1 UNK         0.2984 
     87 H87       -69.7558   28.4741  -75.9573 H         1 UNK         0.0554 
     88 H88       -68.5714   26.6242  -74.7442 H         1 UNK         0.0847 
     89 H89       -68.8596   27.4471  -73.2116 H         1 UNK         0.0847 
     90 H90       -67.8410   28.1899  -74.4342 H         1 UNK         0.0847 
     91 H91       -71.5227   27.1824  -75.7877 H         1 UNK         0.3141 
     92 H92       -72.7860   25.0769  -73.5951 H         1 UNK         0.0743 
     93 H93       -74.5776   27.5706  -73.6234 H         1 UNK         0.0784 
     94 H94       -75.1082   25.9202  -73.3080 H         1 UNK         0.0784 
     95 H95       -74.0391   26.7255  -72.1790 H         1 UNK         0.0784 
     96 H96       -74.3244   26.2548  -75.6810 H         1 UNK         0.3213 
     97 H97       -72.3371   25.2875  -78.4379 H         1 UNK         0.0855 
     98 H98       -75.0800   24.1911  -77.6180 H         1 UNK         0.0814 
     99 H99       -73.6752   23.2117  -78.0108 H         1 UNK         0.0814 
    100 H100      -74.4141   24.2141  -79.2489 H         1 UNK         0.0814 
    101 H101      -74.8618   26.5785  -78.3686 H         1 UNK         0.3105 
    102 H102      -73.7889   29.8824  -77.6309 H         1 UNK         0.0547 
    103 H103      -73.3153   29.7023  -80.0213 H         1 UNK         0.0837 
    104 H104      -74.7032   28.6646  -80.2843 H         1 UNK         0.0837 
    105 H105      -74.9344   30.3434  -79.7967 H         1 UNK         0.0837 
    106 H106      -75.7133   29.4233  -76.7038 H         1 UNK         0.3020 
    107 H107      -77.5194   28.3415  -76.0276 H         1 UNK         0.1245 
    108 H108      -79.2530   28.5193  -78.5538 H         1 UNK         0.0781 
    109 H109      -78.7207   29.8718  -77.5899 H         1 UNK         0.0781 
    110 H110      -81.3744   30.2018  -74.9189 H         1 UNK         0.0836 
    111 H111      -80.3549   31.0027  -76.0840 H         1 UNK         0.0836 
    112 H112      -79.0115   26.2552  -77.3122 H         1 UNK         0.3022 
    113 H113      -77.7856   23.8102  -77.2905 H         1 UNK         0.0747 
    114 H114      -77.5062   22.2374  -75.3754 H         1 UNK         0.0793 
    115 H115      -76.0810   23.2360  -75.5912 H         1 UNK         0.0793 
    116 H116      -77.2007   23.5923  -74.2897 H         1 UNK         0.0793 
    117 H117      -79.5815   23.8135  -75.0083 H         1 UNK         0.3047 
    118 H118      -82.1717   25.2176  -76.0920 H         1 UNK         0.0822 
    119 H119      -83.7657   23.4265  -76.8374 H         1 UNK         0.0807 
    120 H120      -82.4123   22.4990  -77.4843 H         1 UNK         0.0807 
    121 H121      -82.8138   24.0659  -78.1654 H         1 UNK         0.0807 
    122 H122      -82.1255   24.1954  -74.1375 H         1 UNK         0.2946 
    123 H123      -82.6198   22.2585  -72.6929 H         1 UNK         0.1144 
    124 H124      -80.3915   20.1816  -73.0602 H         1 UNK         0.0793 
    125 H125      -82.1134   19.8834  -73.2556 H         1 UNK         0.0793 
    126 H126      -81.4761   20.3046  -71.6751 H         1 UNK         0.0793 
    127 H127      -79.7738   22.3244  -72.0554 H         1 UNK         0.2896 
@<TRIPOS>BOND
     1    1    2 1    
     2    1   67 1    
     3    1   68 1    
     4    1   69 1    
     5    2    3 2    
     6    2    4 am   BACKBONE|DICT|INTERRES
     7    4    5 1    
     8    4   70 1    
     9    5    6 1    
    10    5   65 1    
    11    5   71 1    
    12    6    7 1    
    13    6   72 1    
    14    6   73 1    
    15    7    8 1    
    16    8    9 1    
    17    8   74 1    
    18    8   75 1    
    19    9   10 ar   
    20    9   14 ar   
    21   10   11 ar   
    22   10   76 1    
    23   11   12 ar   
    24   11   48 1    
    25   12   13 ar   
    26   12   77 1    
    27   13   14 ar   
    28   13   15 1    
    29   14   78 1    
    30   15   16 1    
    31   15   79 1    
    32   15   80 1    
    33   16   17 1    
    34   17   18 1    
    35   17   81 1    
    36   17   82 1    
    37   18   19 1    
    38   18   22 1    
    39   18   83 1    
    40   19   20 am   BACKBONE|DICT|INTERRES
    41   19   21 2    
    42   20   84 1    
    43   20   85 1    
    44   22   23 am   BACKBONE|DICT|INTERRES
    45   22   86 1    
    46   23   24 2    
    47   23   25 1    
    48   25   26 1    
    49   25   27 1    
    50   25   87 1    
    51   26   88 1    
    52   26   89 1    
    53   26   90 1    
    54   27   28 am   BACKBONE|DICT|INTERRES
    55   27   91 1    
    56   28   29 2    
    57   28   30 1    
    58   30   31 1    
    59   30   32 1    
    60   30   92 1    
    61   31   93 1    
    62   31   94 1    
    63   31   95 1    
    64   32   33 am   BACKBONE|DICT|INTERRES
    65   32   96 1    
    66   33   34 2    
    67   33   35 1    
    68   35   36 1    
    69   35   37 1    
    70   35   97 1    
    71   36   98 1    
    72   36   99 1    
    73   36  100 1    
    74   37   38 am   BACKBONE|DICT|INTERRES
    75   37  101 1    
    76   38   39 2    
    77   38   40 1    
    78   40   41 1    
    79   40   42 1    
    80   40  102 1    
    81   41  103 1    
    82   41  104 1    
    83   41  105 1    
    84   42   43 am   BACKBONE|DICT|INTERRES
    85   42  106 1    
    86   43   44 2    
    87   43   45 1    
    88   45   46 1    
    89   45   49 1    
    90   45  107 1    
    91   46   47 1    
    92   46  108 1    
    93   46  109 1    
    94   47   48 1    
    95   48  110 1    
    96   48  111 1    
    97   49   50 am   BACKBONE|DICT|INTERRES
    98   49  112 1    
    99   50   51 2    
   100   50   52 1    
   101   52   53 1    
   102   52   54 1    
   103   52  113 1    
   104   53  114 1    
   105   53  115 1    
   106   53  116 1    
   107   54   55 am   BACKBONE|DICT|INTERRES
   108   54  117 1    
   109   55   56 2    
   110   55   57 1    
   111   57   58 1    
   112   57   59 1    
   113   57  118 1    
   114   58  119 1    
   115   58  120 1    
   116   58  121 1    
   117   59   60 am   BACKBONE|DICT|INTERRES
   118   59  122 1    
   119   60   61 2    
   120   60   62 1    
   121   62   63 1    
   122   62   64 1    
   123   62  123 1    
   124   63  124 1    
   125   63  125 1    
   126   63  126 1    
   127   64   65 am   BACKBONE|DICT|INTERRES
   128   64  127 1    
   129   65   66 2    
@<TRIPOS>SUBSTRUCTURE
     1 UNK         1 GROUP             0       ****    0 ROOT    
