@<TRIPOS>MOLECULE
3R135
127   129    1
SMALL
USER_CHARGES


@<TRIPOS>ATOM
      1 CA        -83.6488   29.3101  -74.4368 C.3       0 UNK        -0.1998 
      2 C         -82.5458   29.0082  -75.4403 C.2       0 UNK         0.4909 
      3 O         -82.8185   28.9095  -76.6368 O.2       0 UNK        -0.5240 
      4 N         -81.3039   28.8687  -74.9590 N.am      1 UNK        -0.4739 
      5 CA        -80.1172   28.5457  -75.7614 C.3       1 UNK         0.0864 
      6 C6        -78.8110   28.7792  -74.9632 C.3       11 UNK        -0.0881 
      7 S7        -78.5118   30.5503  -74.6251 S.3       11 UNK        -0.2682 
      8 C8        -79.0155   30.7337  -72.8815 C.3       11 UNK         0.0289 
      9 C9        -78.1022   29.9591  -71.9440 C.ar      11 UNK        -0.0687 
     10 C10       -78.5188   28.7400  -71.4053 C.ar      11 UNK        -0.0823 
     11 C11       -77.6518   27.9821  -70.6147 C.ar      11 UNK        -0.0830 
     12 C12       -76.3861   28.4873  -70.3038 C.ar      11 UNK        -0.1021 
     13 C13       -75.9590   29.7176  -70.8213 C.ar      11 UNK        -0.0753 
     14 C14       -76.8281   30.4460  -71.6400 C.ar      11 UNK        -0.0933 
     15 C15       -74.5771   30.3008  -70.5231 C.3       11 UNK         0.0166 
     16 S16       -73.2938   29.1002  -70.0216 S.3       11 UNK        -0.2615 
     17 C17       -73.1077   28.0467  -71.5030 C.3       11 UNK        -0.0865 
     18 CA        -71.9944   28.5685  -72.4499 C.3       10 UNK         0.0862 
     19 C         -71.3345   27.4261  -73.2811 C.2       10 UNK         0.5551 
     20 N         -71.3133   27.4775  -74.6075 N.am      10 UNK        -0.7319 
     21 O         -70.7962   26.4850  -72.7029 O.2       10 UNK        -0.5018 
     22 N         -72.4764   29.7025  -73.2527 N.am      10 UNK        -0.4509 
     23 C         -71.6908   30.6308  -73.8091 C.2       10 UNK         0.4899 
     24 O         -70.4778   30.7072  -73.6057 O.2       10 UNK        -0.4839 
     25 CA        -72.3751   31.6449  -74.7505 C.3       9 UNK         0.0222 
     26 CB        -71.3868   32.2447  -75.7737 C.3       9 UNK        -0.1966 
     27 N         -73.5721   31.1458  -75.4484 N.am      9 UNK        -0.4218 
     28 C         -73.6662   30.0668  -76.2412 C.2       9 UNK         0.5020 
     29 O         -72.7727   29.2314  -76.3928 O.2       9 UNK        -0.5274 
     30 CA        -74.9657   29.9404  -77.0411 C.3       8 UNK         0.0270 
     31 CB        -74.8798   30.8152  -78.3104 C.3       8 UNK        -0.1976 
     32 N         -75.2093   28.5409  -77.3947 N.am      8 UNK        -0.4313 
     33 C         -76.3611   28.0683  -77.8837 C.2       8 UNK         0.5041 
     34 O         -77.3406   28.7824  -78.1003 O.2       8 UNK        -0.5577 
     35 CA        -76.4824   26.5644  -78.1878 C.3       7 UNK         0.0284 
     36 CB        -76.0945   26.2624  -79.6488 C.3       7 UNK        -0.1958 
     37 N         -75.8107   25.6533  -77.2518 N.am      7 UNK        -0.4454 
     38 C         -74.4979   25.4438  -77.0771 C.2       7 UNK         0.5089 
     39 O         -73.6198   26.1204  -77.6132 O.2       7 UNK        -0.5125 
     40 CA        -74.1165   24.2478  -76.1810 C.3       6 UNK         0.0408 
     41 CB        -72.6375   24.2383  -75.7461 C.3       6 UNK        -0.1791 
     42 N         -75.0130   24.0760  -75.0342 N.am      6 UNK        -0.4762 
     43 C         -75.1982   24.9230  -74.0074 C.2       6 UNK         0.5007 
     44 O         -74.5589   25.9651  -73.8655 O.2       6 UNK        -0.5032 
     45 CA        -76.2995   24.5763  -72.9785 C.3       5 UNK         0.0783 
     46 C46       -77.2633   25.7755  -72.8110 C.3       11 UNK        -0.0857 
     47 S47       -78.5652   25.5067  -71.5532 S.3       11 UNK        -0.2512 
     48 C48       -78.0445   26.5796  -70.1647 C.3       11 UNK         0.0225 
     49 N         -77.0223   23.3612  -73.3630 N.am      5 UNK        -0.4615 
     50 C         -76.7307   22.1197  -72.9569 C.2       4 UNK         0.5053 
     51 O         -75.8461   21.8569  -72.1426 O.2       4 UNK        -0.5105 
     52 CA        -77.5481   20.9703  -73.5800 C.3       4 UNK         0.0263 
     53 CB        -78.6736   20.5401  -72.6255 C.3       4 UNK        -0.1981 
     54 N         -78.1294   21.3034  -74.8855 N.am      4 UNK        -0.4224 
     55 C         -77.4290   21.5511  -76.0030 C.2       3 UNK         0.4895 
     56 O         -76.2049   21.4540  -76.0775 O.2       3 UNK        -0.5091 
     57 CA        -78.2207   22.0707  -77.2177 C.3       3 UNK         0.0250 
     58 CB        -78.7033   20.9014  -78.0901 C.3       3 UNK        -0.1996 
     59 N         -79.3646   22.9117  -76.8412 N.am      3 UNK        -0.4254 
     60 C         -79.2632   24.0741  -76.1813 C.2       2 UNK         0.5004 
     61 O         -78.1838   24.5794  -75.8620 O.2       2 UNK        -0.5226 
     62 CA        -80.5860   24.7181  -75.7300 C.3       2 UNK         0.0269 
     63 CB        -81.1245   23.9945  -74.4837 C.3       2 UNK        -0.1926 
     64 N         -80.4531   26.1421  -75.4137 N.am      2 UNK        -0.4687 
     65 C         -80.1929   27.1051  -76.3091 C.2       1 UNK         0.5165 
     66 O         -80.0699   26.8970  -77.5168 O.2       1 UNK        -0.5079 
     67 H67       -83.2671   29.3822  -73.4185 H         1 UNK         0.0900 
     68 H68       -84.1327   30.2546  -74.6845 H         1 UNK         0.0900 
     69 H69       -84.4031   28.5241  -74.4612 H         1 UNK         0.0900 
     70 H70       -81.1476   28.9750  -73.9685 H         1 UNK         0.2959 
     71 H71       -80.1052   29.2094  -76.6296 H         1 UNK         0.1079 
     72 H72       -77.9488   28.4119  -75.5194 H         1 UNK         0.0837 
     73 H73       -78.8174   28.2082  -74.0363 H         1 UNK         0.0837 
     74 H74       -80.0532   30.4201  -72.7636 H         1 UNK         0.0685 
     75 H75       -78.9876   31.7921  -72.6183 H         1 UNK         0.0685 
     76 H76       -79.4971   28.3485  -71.6476 H         1 UNK         0.1434 
     77 H77       -75.7253   27.9017  -69.6808 H         1 UNK         0.1329 
     78 H78       -76.5088   31.3915  -72.0572 H         1 UNK         0.1335 
     79 H79       -74.2117   30.8530  -71.3896 H         1 UNK         0.0680 
     80 H80       -74.6859   31.0321  -69.7213 H         1 UNK         0.0680 
     81 H81       -74.0578   27.9472  -72.0302 H         1 UNK         0.1032 
     82 H82       -72.8732   27.0450  -71.1375 H         1 UNK         0.1032 
     83 H83       -71.1825   28.9393  -71.8209 H         1 UNK         0.0461 
     84 H84       -70.8624   26.7379  -75.1189 H         1 UNK         0.3453 
     85 H85       -71.7865   28.2194  -75.1156 H         1 UNK         0.3453 
     86 H86       -73.4550   29.6932  -73.4958 H         1 UNK         0.2984 
     87 H87       -72.7175   32.4584  -74.1094 H         1 UNK         0.0554 
     88 H88       -70.5560   32.7458  -75.2753 H         1 UNK         0.0847 
     89 H89       -71.8722   32.9857  -76.4089 H         1 UNK         0.0847 
     90 H90       -70.9629   31.4753  -76.4203 H         1 UNK         0.0847 
     91 H91       -74.3819   31.7482  -75.3851 H         1 UNK         0.3141 
     92 H92       -75.7916   30.2849  -76.4146 H         1 UNK         0.0743 
     93 H93       -74.6467   31.8516  -78.0623 H         1 UNK         0.0784 
     94 H94       -75.8208   30.8270  -78.8599 H         1 UNK         0.0784 
     95 H95       -74.1022   30.4598  -78.9877 H         1 UNK         0.0784 
     96 H96       -74.4236   27.9055  -77.2627 H         1 UNK         0.3213 
     97 H97       -77.5414   26.3240  -78.0878 H         1 UNK         0.0855 
     98 H98       -75.0464   26.4870  -79.8486 H         1 UNK         0.0814 
     99 H99       -76.6893   26.8629  -80.3384 H         1 UNK         0.0814 
    100 H100      -76.2691   25.2158  -79.8979 H         1 UNK         0.0814 
    101 H101      -76.4513   25.0981  -76.6898 H         1 UNK         0.3105 
    102 H102      -74.2663   23.3658  -76.8051 H         1 UNK         0.0547 
    103 H103      -72.3910   23.3237  -75.2075 H         1 UNK         0.0837 
    104 H104      -72.4035   25.0788  -75.0966 H         1 UNK         0.0837 
    105 H105      -71.9718   24.2951  -76.6080 H         1 UNK         0.0837 
    106 H106      -75.5850   23.2401  -75.0676 H         1 UNK         0.3020 
    107 H107      -75.7933   24.4143  -72.0243 H         1 UNK         0.1245 
    108 H108      -77.7637   25.9947  -73.7544 H         1 UNK         0.0781 
    109 H109      -76.6962   26.6752  -72.5760 H         1 UNK         0.0781 
    110 H110      -77.2157   26.0933  -69.6478 H         1 UNK         0.0836 
    111 H111      -78.8594   26.6496  -69.4432 H         1 UNK         0.0836 
    112 H112      -77.7390   23.4980  -74.0639 H         1 UNK         0.3022 
    113 H113      -76.8709   20.1249  -73.7194 H         1 UNK         0.0747 
    114 H114      -79.2171   19.6784  -73.0136 H         1 UNK         0.0793 
    115 H115      -78.2716   20.2550  -71.6520 H         1 UNK         0.0793 
    116 H116      -79.3911   21.3447  -72.4579 H         1 UNK         0.0793 
    117 H117      -79.1335   21.3982  -74.9224 H         1 UNK         0.3047 
    118 H118      -77.5401   22.6838  -77.8130 H         1 UNK         0.0822 
    119 H119      -79.1899   21.2582  -78.9981 H         1 UNK         0.0807 
    120 H120      -79.4095   20.2622  -77.5586 H         1 UNK         0.0807 
    121 H121      -77.8656   20.2745  -78.3995 H         1 UNK         0.0807 
    122 H122      -80.2822   22.5549  -77.0686 H         1 UNK         0.2946 
    123 H123      -81.3096   24.6200  -76.5426 H         1 UNK         0.1144 
    124 H124      -82.0736   24.4205  -74.1572 H         1 UNK         0.0793 
    125 H125      -80.4262   24.0557  -73.6476 H         1 UNK         0.0793 
    126 H126      -81.3031   22.9372  -74.6829 H         1 UNK         0.0793 
    127 H127      -80.5448   26.3986  -74.4423 H         1 UNK         0.2896 
@<TRIPOS>BOND
     1    1    2 1    
     2    1   67 1    
     3    1   68 1    
     4    1   69 1    
     5    2    3 2    
     6    2    4 am   BACKBONE|DICT|INTERRES
     7    4    5 1    
     8    4   70 1    
     9    5    6 1    
    10    5   65 1    
    11    5   71 1    
    12    6    7 1    
    13    6   72 1    
    14    6   73 1    
    15    7    8 1    
    16    8    9 1    
    17    8   74 1    
    18    8   75 1    
    19    9   10 ar   
    20    9   14 ar   
    21   10   11 ar   
    22   10   76 1    
    23   11   12 ar   
    24   11   48 1    
    25   12   13 ar   
    26   12   77 1    
    27   13   14 ar   
    28   13   15 1    
    29   14   78 1    
    30   15   16 1    
    31   15   79 1    
    32   15   80 1    
    33   16   17 1    
    34   17   18 1    
    35   17   81 1    
    36   17   82 1    
    37   18   19 1    
    38   18   22 1    
    39   18   83 1    
    40   19   20 am   BACKBONE|DICT|INTERRES
    41   19   21 2    
    42   20   84 1    
    43   20   85 1    
    44   22   23 am   BACKBONE|DICT|INTERRES
    45   22   86 1    
    46   23   24 2    
    47   23   25 1    
    48   25   26 1    
    49   25   27 1    
    50   25   87 1    
    51   26   88 1    
    52   26   89 1    
    53   26   90 1    
    54   27   28 am   BACKBONE|DICT|INTERRES
    55   27   91 1    
    56   28   29 2    
    57   28   30 1    
    58   30   31 1    
    59   30   32 1    
    60   30   92 1    
    61   31   93 1    
    62   31   94 1    
    63   31   95 1    
    64   32   33 am   BACKBONE|DICT|INTERRES
    65   32   96 1    
    66   33   34 2    
    67   33   35 1    
    68   35   36 1    
    69   35   37 1    
    70   35   97 1    
    71   36   98 1    
    72   36   99 1    
    73   36  100 1    
    74   37   38 am   BACKBONE|DICT|INTERRES
    75   37  101 1    
    76   38   39 2    
    77   38   40 1    
    78   40   41 1    
    79   40   42 1    
    80   40  102 1    
    81   41  103 1    
    82   41  104 1    
    83   41  105 1    
    84   42   43 am   BACKBONE|DICT|INTERRES
    85   42  106 1    
    86   43   44 2    
    87   43   45 1    
    88   45   46 1    
    89   45   49 1    
    90   45  107 1    
    91   46   47 1    
    92   46  108 1    
    93   46  109 1    
    94   47   48 1    
    95   48  110 1    
    96   48  111 1    
    97   49   50 am   BACKBONE|DICT|INTERRES
    98   49  112 1    
    99   50   51 2    
   100   50   52 1    
   101   52   53 1    
   102   52   54 1    
   103   52  113 1    
   104   53  114 1    
   105   53  115 1    
   106   53  116 1    
   107   54   55 am   BACKBONE|DICT|INTERRES
   108   54  117 1    
   109   55   56 2    
   110   55   57 1    
   111   57   58 1    
   112   57   59 1    
   113   57  118 1    
   114   58  119 1    
   115   58  120 1    
   116   58  121 1    
   117   59   60 am   BACKBONE|DICT|INTERRES
   118   59  122 1    
   119   60   61 2    
   120   60   62 1    
   121   62   63 1    
   122   62   64 1    
   123   62  123 1    
   124   63  124 1    
   125   63  125 1    
   126   63  126 1    
   127   64   65 am   BACKBONE|DICT|INTERRES
   128   64  127 1    
   129   65   66 2    
@<TRIPOS>SUBSTRUCTURE
     1 UNK         1 GROUP             0       ****    0 ROOT    
