@<TRIPOS>MOLECULE
3R135
127   129    1
SMALL
USER_CHARGES


@<TRIPOS>ATOM
      1 CA        -82.0513   28.4824  -75.9348 C.3       0 UNK        -0.1998 
      2 C         -83.2766   28.8863  -75.1215 C.2       0 UNK         0.4909 
      3 O         -84.2061   29.4655  -75.6810 O.2       0 UNK        -0.5240 
      4 N         -83.3285   28.6273  -73.8068 N.am      1 UNK        -0.4739 
      5 CA        -82.3615   27.8684  -73.0021 C.3       1 UNK         0.0864 
      6 C6        -82.6373   28.0938  -71.4937 C.3       11 UNK        -0.0881 
      7 S7        -81.2812   27.5614  -70.3902 S.3       11 UNK        -0.2682 
      8 C8        -80.2808   29.0727  -70.2148 C.3       11 UNK         0.0289 
      9 C9        -79.0187   29.0219  -71.0649 C.ar      11 UNK        -0.0687 
     10 C10       -78.9037   29.8001  -72.2235 C.ar      11 UNK        -0.0823 
     11 C11       -77.7125   29.8013  -72.9581 C.ar      11 UNK        -0.0830 
     12 C12       -76.6383   29.0210  -72.5244 C.ar      11 UNK        -0.1021 
     13 C13       -76.7467   28.2254  -71.3849 C.ar      11 UNK        -0.0753 
     14 C14       -77.9396   28.2282  -70.6568 C.ar      11 UNK        -0.0933 
     15 C15       -75.5523   27.3982  -70.9401 C.3       11 UNK         0.0166 
     16 S16       -74.4116   28.4237  -69.9642 S.3       11 UNK        -0.2615 
     17 C17       -72.7910   27.6678  -70.3284 C.3       11 UNK        -0.0865 
     18 CA        -71.9561   28.5380  -71.3100 C.3       10 UNK         0.0862 
     19 C         -70.4407   28.1710  -71.2724 C.2       10 UNK         0.5551 
     20 N         -69.7599   27.9765  -72.3959 N.am      10 UNK        -0.7319 
     21 O         -69.8604   28.0734  -70.1939 O.2       10 UNK        -0.5018 
     22 N         -72.5390   28.5341  -72.6629 N.am      10 UNK        -0.4509 
     23 C         -72.4767   29.5490  -73.5352 C.2       10 UNK         0.4899 
     24 O         -72.0161   30.6593  -73.2667 O.2       10 UNK        -0.4839 
     25 CA        -72.9995   29.2472  -74.9562 C.3       9 UNK         0.0222 
     26 CB        -72.5975   30.3166  -75.9930 C.3       9 UNK        -0.1966 
     27 N         -72.6293   27.9014  -75.4181 N.am      9 UNK        -0.4218 
     28 C         -71.3901   27.4051  -75.5517 C.2       9 UNK         0.5020 
     29 O         -70.3674   28.0599  -75.3481 O.2       9 UNK        -0.5274 
     30 CA        -71.2488   25.9198  -75.9120 C.3       8 UNK         0.0270 
     31 CB        -71.1767   25.0698  -74.6305 C.3       8 UNK        -0.1976 
     32 N         -72.3314   25.4119  -76.7635 N.am      8 UNK        -0.4313 
     33 C         -72.1338   24.6540  -77.8507 C.2       8 UNK         0.5041 
     34 O         -71.0205   24.3935  -78.3107 O.2       8 UNK        -0.5577 
     35 CA        -73.3673   24.0387  -78.5328 C.3       7 UNK         0.0284 
     36 CB        -73.7063   22.6780  -77.9029 C.3       7 UNK        -0.1958 
     37 N         -74.5601   24.8874  -78.5266 N.am      7 UNK        -0.4454 
     38 C         -74.7212   25.9584  -79.3167 C.2       7 UNK         0.5089 
     39 O         -73.8368   26.4200  -80.0384 O.2       7 UNK        -0.5125 
     40 CA        -76.1152   26.6043  -79.3285 C.3       6 UNK         0.0408 
     41 CB        -77.0865   25.7813  -80.1907 C.3       6 UNK        -0.1791 
     42 N         -76.6550   26.7343  -77.9771 N.am      6 UNK        -0.4762 
     43 C         -76.4093   27.7745  -77.1689 C.2       6 UNK         0.5007 
     44 O         -75.7577   28.7636  -77.5047 O.2       6 UNK        -0.5032 
     45 CA        -76.9366   27.6709  -75.7240 C.3       5 UNK         0.0783 
     46 C46       -78.3672   28.2415  -75.5727 C.3       11 UNK        -0.0857 
     47 S47       -78.5074   30.0618  -75.6437 S.3       11 UNK        -0.2512 
     48 C48       -77.5571   30.6626  -74.2050 C.3       11 UNK         0.0225 
     49 N         -76.8736   26.3024  -75.2022 N.am      5 UNK        -0.4615 
     50 C         -75.7459   25.6070  -75.0018 C.2       4 UNK         0.5053 
     51 O         -74.6243   26.0671  -75.2010 O.2       4 UNK        -0.5105 
     52 CA        -75.8690   24.1430  -74.5457 C.3       4 UNK         0.0263 
     53 CB        -75.7714   24.0636  -73.0143 C.3       4 UNK        -0.1981 
     54 N         -77.0982   23.4826  -74.9896 N.am      4 UNK        -0.4224 
     55 C         -77.5279   23.3815  -76.2573 C.2       3 UNK         0.4895 
     56 O         -76.8707   23.7446  -77.2341 O.2       3 UNK        -0.5091 
     57 CA        -78.9662   22.8658  -76.4614 C.3       3 UNK         0.0250 
     58 CB        -78.9523   21.3683  -76.8050 C.3       3 UNK        -0.1996 
     59 N         -79.8577   23.0993  -75.3129 N.am      3 UNK        -0.4254 
     60 C         -80.1195   24.3005  -74.7746 C.2       2 UNK         0.5004 
     61 O         -79.6527   25.3555  -75.2123 O.2       2 UNK        -0.5226 
     62 CA        -80.9702   24.3127  -73.4950 C.3       2 UNK         0.0269 
     63 CB        -80.2183   23.6295  -72.3379 C.3       2 UNK        -0.1926 
     64 N         -81.2489   25.6923  -73.0994 N.am      2 UNK        -0.4687 
     65 C         -82.3661   26.3681  -73.3801 C.2       1 UNK         0.5165 
     66 O         -83.3592   25.8598  -73.9078 O.2       1 UNK        -0.5079 
     67 H67       -82.0227   27.4048  -76.0933 H         1 UNK         0.0900 
     68 H68       -81.1377   28.7910  -75.4342 H         1 UNK         0.0900 
     69 H69       -82.0651   28.9635  -76.9125 H         1 UNK         0.0900 
     70 H70       -84.1671   28.8967  -73.3130 H         1 UNK         0.2959 
     71 H71       -81.3686   28.2658  -73.2202 H         1 UNK         0.1079 
     72 H72       -82.8375   29.1492  -71.3026 H         1 UNK         0.0837 
     73 H73       -83.5469   27.5707  -71.1914 H         1 UNK         0.0837 
     74 H74       -80.8722   29.9587  -70.4491 H         1 UNK         0.0685 
     75 H75       -79.9956   29.1758  -69.1667 H         1 UNK         0.0685 
     76 H76       -79.7307   30.4184  -72.5455 H         1 UNK         0.1434 
     77 H77       -75.7016   29.0391  -73.0619 H         1 UNK         0.1329 
     78 H78       -78.0225   27.6301  -69.7596 H         1 UNK         0.1335 
     79 H79       -75.8716   26.5396  -70.3475 H         1 UNK         0.0680 
     80 H80       -75.0429   26.9994  -71.8186 H         1 UNK         0.0680 
     81 H81       -72.9131   26.6521  -70.7080 H         1 UNK         0.1032 
     82 H82       -72.2792   27.5652  -69.3696 H         1 UNK         0.1032 
     83 H83       -71.9931   29.5624  -70.9340 H         1 UNK         0.0461 
     84 H84       -68.7805   27.7484  -72.3349 H         1 UNK         0.3453 
     85 H85       -70.1859   28.1016  -73.3059 H         1 UNK         0.3453 
     86 H86       -72.9090   27.6520  -72.9820 H         1 UNK         0.2984 
     87 H87       -74.0869   29.2570  -74.8878 H         1 UNK         0.0554 
     88 H88       -73.0081   30.0854  -76.9761 H         1 UNK         0.0847 
     89 H89       -71.5149   30.4014  -76.0914 H         1 UNK         0.0847 
     90 H90       -72.9763   31.2990  -75.7087 H         1 UNK         0.0847 
     91 H91       -73.4084   27.2497  -75.5040 H         1 UNK         0.3141 
     92 H92       -70.2911   25.8283  -76.4287 H         1 UNK         0.0743 
     93 H93       -72.1119   25.1030  -74.0699 H         1 UNK         0.0784 
     94 H94       -70.9637   24.0260  -74.8618 H         1 UNK         0.0784 
     95 H95       -70.3841   25.4214  -73.9683 H         1 UNK         0.0784 
     96 H96       -73.2807   25.5752  -76.4413 H         1 UNK         0.3213 
     97 H97       -73.0982   23.8576  -79.5761 H         1 UNK         0.0855 
     98 H98       -73.9845   22.7747  -76.8544 H         1 UNK         0.0814 
     99 H99       -72.8513   22.0022  -77.9511 H         1 UNK         0.0814 
    100 H100      -74.5319   22.1930  -78.4243 H         1 UNK         0.0814 
    101 H101      -75.3620   24.5467  -78.0006 H         1 UNK         0.3105 
    102 H102      -76.0260   27.5939  -79.7823 H         1 UNK         0.0547 
    103 H103      -76.7106   25.6785  -81.2095 H         1 UNK         0.0837 
    104 H104      -77.2334   24.7756  -79.7951 H         1 UNK         0.0837 
    105 H105      -78.0630   26.2614  -80.2538 H         1 UNK         0.0837 
    106 H106      -77.1464   25.9321  -77.6031 H         1 UNK         0.3020 
    107 H107      -76.2578   28.2664  -75.1183 H         1 UNK         0.1245 
    108 H108      -78.7966   27.9239  -74.6212 H         1 UNK         0.0781 
    109 H109      -79.0246   27.8183  -76.3345 H         1 UNK         0.0781 
    110 H110      -77.8731   31.6819  -73.9787 H         1 UNK         0.0836 
    111 H111      -76.5068   30.7356  -74.4918 H         1 UNK         0.0836 
    112 H112      -77.7709   25.8479  -75.0571 H         1 UNK         0.3022 
    113 H113      -75.0276   23.5947  -74.9702 H         1 UNK         0.0747 
    114 H114      -75.7846   23.0301  -72.6676 H         1 UNK         0.0793 
    115 H115      -74.8405   24.5084  -72.6595 H         1 UNK         0.0793 
    116 H116      -76.5921   24.5930  -72.5279 H         1 UNK         0.0793 
    117 H117      -77.7110   23.1439  -74.2634 H         1 UNK         0.3047 
    118 H118      -79.3815   23.4098  -77.3124 H         1 UNK         0.0822 
    119 H119      -79.9506   21.0084  -77.0550 H         1 UNK         0.0807 
    120 H120      -78.5742   20.7664  -75.9776 H         1 UNK         0.0807 
    121 H121      -78.3147   21.1723  -77.6685 H         1 UNK         0.0807 
    122 H122      -80.2749   22.2790  -74.8959 H         1 UNK         0.2946 
    123 H123      -81.9008   23.7747  -73.6905 H         1 UNK         0.1144 
    124 H124      -80.0328   22.5754  -72.5468 H         1 UNK         0.0793 
    125 H125      -80.7970   23.6728  -71.4147 H         1 UNK         0.0793 
    126 H126      -79.2538   24.1017  -72.1454 H         1 UNK         0.0793 
    127 H127      -80.4806   26.1908  -72.6729 H         1 UNK         0.2896 
@<TRIPOS>BOND
     1    1    2 1    
     2    1   67 1    
     3    1   68 1    
     4    1   69 1    
     5    2    3 2    
     6    2    4 am   BACKBONE|DICT|INTERRES
     7    4    5 1    
     8    4   70 1    
     9    5    6 1    
    10    5   65 1    
    11    5   71 1    
    12    6    7 1    
    13    6   72 1    
    14    6   73 1    
    15    7    8 1    
    16    8    9 1    
    17    8   74 1    
    18    8   75 1    
    19    9   10 ar   
    20    9   14 ar   
    21   10   11 ar   
    22   10   76 1    
    23   11   12 ar   
    24   11   48 1    
    25   12   13 ar   
    26   12   77 1    
    27   13   14 ar   
    28   13   15 1    
    29   14   78 1    
    30   15   16 1    
    31   15   79 1    
    32   15   80 1    
    33   16   17 1    
    34   17   18 1    
    35   17   81 1    
    36   17   82 1    
    37   18   19 1    
    38   18   22 1    
    39   18   83 1    
    40   19   20 am   BACKBONE|DICT|INTERRES
    41   19   21 2    
    42   20   84 1    
    43   20   85 1    
    44   22   23 am   BACKBONE|DICT|INTERRES
    45   22   86 1    
    46   23   24 2    
    47   23   25 1    
    48   25   26 1    
    49   25   27 1    
    50   25   87 1    
    51   26   88 1    
    52   26   89 1    
    53   26   90 1    
    54   27   28 am   BACKBONE|DICT|INTERRES
    55   27   91 1    
    56   28   29 2    
    57   28   30 1    
    58   30   31 1    
    59   30   32 1    
    60   30   92 1    
    61   31   93 1    
    62   31   94 1    
    63   31   95 1    
    64   32   33 am   BACKBONE|DICT|INTERRES
    65   32   96 1    
    66   33   34 2    
    67   33   35 1    
    68   35   36 1    
    69   35   37 1    
    70   35   97 1    
    71   36   98 1    
    72   36   99 1    
    73   36  100 1    
    74   37   38 am   BACKBONE|DICT|INTERRES
    75   37  101 1    
    76   38   39 2    
    77   38   40 1    
    78   40   41 1    
    79   40   42 1    
    80   40  102 1    
    81   41  103 1    
    82   41  104 1    
    83   41  105 1    
    84   42   43 am   BACKBONE|DICT|INTERRES
    85   42  106 1    
    86   43   44 2    
    87   43   45 1    
    88   45   46 1    
    89   45   49 1    
    90   45  107 1    
    91   46   47 1    
    92   46  108 1    
    93   46  109 1    
    94   47   48 1    
    95   48  110 1    
    96   48  111 1    
    97   49   50 am   BACKBONE|DICT|INTERRES
    98   49  112 1    
    99   50   51 2    
   100   50   52 1    
   101   52   53 1    
   102   52   54 1    
   103   52  113 1    
   104   53  114 1    
   105   53  115 1    
   106   53  116 1    
   107   54   55 am   BACKBONE|DICT|INTERRES
   108   54  117 1    
   109   55   56 2    
   110   55   57 1    
   111   57   58 1    
   112   57   59 1    
   113   57  118 1    
   114   58  119 1    
   115   58  120 1    
   116   58  121 1    
   117   59   60 am   BACKBONE|DICT|INTERRES
   118   59  122 1    
   119   60   61 2    
   120   60   62 1    
   121   62   63 1    
   122   62   64 1    
   123   62  123 1    
   124   63  124 1    
   125   63  125 1    
   126   63  126 1    
   127   64   65 am   BACKBONE|DICT|INTERRES
   128   64  127 1    
   129   65   66 2    
@<TRIPOS>SUBSTRUCTURE
     1 UNK         1 GROUP             0       ****    0 ROOT    
