@<TRIPOS>MOLECULE
3R135
127   129    1
SMALL
USER_CHARGES


@<TRIPOS>ATOM
      1 CA        -81.7772   30.5612  -76.0259 C.3       0 UNK        -0.1998 
      2 C         -81.1859   29.3499  -75.3217 C.2       0 UNK         0.4909 
      3 O         -81.3393   28.2291  -75.8073 O.2       0 UNK        -0.5240 
      4 N         -80.4975   29.5722  -74.1919 N.am      1 UNK        -0.4739 
      5 CA        -79.8729   28.5551  -73.3292 C.3       1 UNK         0.0864 
      6 C6        -80.9132   27.7816  -72.4666 C.3       11 UNK        -0.0881 
      7 S7        -81.4258   28.7778  -71.0253 S.3       11 UNK        -0.2682 
      8 C8        -80.3765   28.0839  -69.6970 C.3       11 UNK         0.0289 
      9 C9        -78.9067   28.0186  -70.0961 C.ar      11 UNK        -0.0687 
     10 C10       -78.3091   26.7860  -70.3839 C.ar      11 UNK        -0.0823 
     11 C11       -76.9871   26.7229  -70.8359 C.ar      11 UNK        -0.0830 
     12 C12       -76.2616   27.9063  -70.9907 C.ar      11 UNK        -0.1021 
     13 C13       -76.8509   29.1441  -70.7180 C.ar      11 UNK        -0.0753 
     14 C14       -78.1635   29.1942  -70.2410 C.ar      11 UNK        -0.0933 
     15 C15       -76.0902   30.4243  -71.0139 C.3       11 UNK         0.0166 
     16 S16       -76.2326   30.8137  -72.7840 S.3       11 UNK        -0.2615 
     17 C17       -75.2227   32.3296  -72.9678 C.3       11 UNK        -0.0865 
     18 CA        -73.6829   32.2048  -72.7164 C.3       10 UNK         0.0862 
     19 C         -73.2698   32.5548  -71.2617 C.2       10 UNK         0.5551 
     20 N         -73.5098   33.7835  -70.8249 N.am      10 UNK        -0.7319 
     21 O         -72.7322   31.7284  -70.5252 O.2       10 UNK        -0.5018 
     22 N         -73.1053   30.9179  -73.1193 N.am      10 UNK        -0.4509 
     23 C         -73.0718   30.4039  -74.3506 C.2       10 UNK         0.4899 
     24 O         -73.4914   30.9859  -75.3541 O.2       10 UNK        -0.4839 
     25 CA        -72.4944   28.9805  -74.4456 C.3       9 UNK         0.0222 
     26 CB        -73.3548   27.9830  -73.6485 C.3       9 UNK        -0.1966 
     27 N         -72.4190   28.5127  -75.8258 N.am      9 UNK        -0.4218 
     28 C         -71.4515   28.7853  -76.7053 C.2       9 UNK         0.5020 
     29 O         -70.4530   29.4583  -76.4390 O.2       9 UNK        -0.5274 
     30 CA        -71.6259   28.1659  -78.1103 C.3       8 UNK         0.0270 
     31 CB        -70.4721   28.5265  -79.0655 C.3       8 UNK        -0.1976 
     32 N         -71.7729   26.7040  -78.0718 N.am      8 UNK        -0.4313 
     33 C         -72.8603   26.0432  -77.6540 C.2       8 UNK         0.5041 
     34 O         -73.8795   26.6025  -77.2434 O.2       8 UNK        -0.5577 
     35 CA        -72.7838   24.5149  -77.6437 C.3       7 UNK         0.0284 
     36 CB        -71.9538   24.0155  -76.4459 C.3       7 UNK        -0.1958 
     37 N         -74.1403   23.9841  -77.5513 N.am      7 UNK        -0.4454 
     38 C         -74.5349   22.7785  -77.9702 C.2       7 UNK         0.5089 
     39 O         -73.7886   21.9656  -78.5203 O.2       7 UNK        -0.5125 
     40 CA        -76.0103   22.4278  -77.7030 C.3       6 UNK         0.0408 
     41 CB        -76.3807   20.9862  -78.1104 C.3       6 UNK        -0.1791 
     42 N         -76.3980   22.6960  -76.3126 N.am      6 UNK        -0.4762 
     43 C         -75.8949   22.1391  -75.1989 C.2       6 UNK         0.5007 
     44 O         -75.0029   21.2896  -75.2004 O.2       6 UNK        -0.5032 
     45 CA        -76.5033   22.5690  -73.8457 C.3       5 UNK         0.0783 
     46 C46       -75.5208   23.4298  -72.9925 C.3       11 UNK        -0.0857 
     47 S47       -75.8787   25.2218  -72.9160 S.3       11 UNK        -0.2512 
     48 C48       -76.3472   25.3787  -71.1583 C.3       11 UNK         0.0225 
     49 N         -77.8434   23.1547  -73.9929 N.am      5 UNK        -0.4615 
     50 C         -78.9583   22.4469  -74.2208 C.2       4 UNK         0.5053 
     51 O         -78.9978   21.2166  -74.2439 O.2       4 UNK        -0.5105 
     52 CA        -80.2379   23.2478  -74.4947 C.3       4 UNK         0.0263 
     53 CB        -80.8078   23.8366  -73.1928 C.3       4 UNK        -0.1981 
     54 N         -79.9967   24.3132  -75.4713 N.am      4 UNK        -0.4224 
     55 C         -79.9374   24.1165  -76.7980 C.2       3 UNK         0.4895 
     56 O         -80.1066   23.0184  -77.3287 O.2       3 UNK        -0.5091 
     57 CA        -79.6533   25.3312  -77.7018 C.3       3 UNK         0.0250 
     58 CB        -80.9591   25.8577  -78.3183 C.3       3 UNK        -0.1996 
     59 N         -78.9696   26.4259  -77.0120 N.am      3 UNK        -0.4254 
     60 C         -77.6667   26.4152  -76.6928 C.2       2 UNK         0.5004 
     61 O         -76.9047   25.4974  -76.9930 O.2       2 UNK        -0.5226 
     62 CA        -77.1250   27.5996  -75.8693 C.3       2 UNK         0.0269 
     63 CB        -76.5197   28.6701  -76.7920 C.3       2 UNK        -0.1926 
     64 N         -78.1091   28.2467  -74.9965 N.am      2 UNK        -0.4687 
     65 C         -78.8883   27.6400  -74.0895 C.2       1 UNK         0.5165 
     66 O         -78.8791   26.4245  -73.8918 O.2       1 UNK        -0.5079 
     67 H67       -81.5610   31.4884  -75.4957 H         1 UNK         0.0900 
     68 H68       -81.3716   30.6434  -77.0339 H         1 UNK         0.0900 
     69 H69       -82.8593   30.4579  -76.1014 H         1 UNK         0.0900 
     70 H70       -80.4068   30.5221  -73.8587 H         1 UNK         0.2959 
     71 H71       -79.2214   29.1155  -72.6614 H         1 UNK         0.1079 
     72 H72       -80.5285   26.8325  -72.0937 H         1 UNK         0.0837 
     73 H73       -81.7924   27.5224  -73.0579 H         1 UNK         0.0837 
     74 H74       -80.7488   27.0923  -69.4346 H         1 UNK         0.0685 
     75 H75       -80.4830   28.6980  -68.8017 H         1 UNK         0.0685 
     76 H76       -78.8841   25.8758  -70.2819 H         1 UNK         0.1434 
     77 H77       -75.2483   27.8642  -71.3621 H         1 UNK         0.1329 
     78 H78       -78.6308   30.1501  -70.0464 H         1 UNK         0.1335 
     79 H79       -76.4726   31.2547  -70.4185 H         1 UNK         0.0680 
     80 H80       -75.0427   30.2917  -70.7439 H         1 UNK         0.0680 
     81 H81       -75.6708   33.1210  -72.3647 H         1 UNK         0.1032 
     82 H82       -75.3670   32.6571  -73.9983 H         1 UNK         0.1032 
     83 H83       -73.1865   32.9564  -73.3333 H         1 UNK         0.0461 
     84 H84       -73.9316   34.4795  -71.4198 H         1 UNK         0.3453 
     85 H85       -73.2456   34.0264  -69.8828 H         1 UNK         0.3453 
     86 H86       -72.7181   30.3934  -72.3457 H         1 UNK         0.2984 
     87 H87       -71.4873   28.9890  -74.0235 H         1 UNK         0.0554 
     88 H88       -73.2978   28.1838  -72.5789 H         1 UNK         0.0847 
     89 H89       -73.0209   26.9555  -73.7961 H         1 UNK         0.0847 
     90 H90       -74.4059   28.0359  -73.9360 H         1 UNK         0.0847 
     91 H91       -73.1893   27.9377  -76.1629 H         1 UNK         0.3141 
     92 H92       -72.5422   28.5892  -78.5280 H         1 UNK         0.0743 
     93 H93       -69.5180   28.1309  -78.7147 H         1 UNK         0.0784 
     94 H94       -70.6498   28.1373  -80.0682 H         1 UNK         0.0784 
     95 H95       -70.3634   29.6083  -79.1562 H         1 UNK         0.0784 
     96 H96       -70.9625   26.1690  -78.3505 H         1 UNK         0.3213 
     97 H97       -72.3262   24.1857  -78.5792 H         1 UNK         0.0855 
     98 H98       -72.3867   24.3377  -75.4976 H         1 UNK         0.0814 
     99 H99       -70.9320   24.3944  -76.4852 H         1 UNK         0.0814 
    100 H100      -71.8932   22.9271  -76.4305 H         1 UNK         0.0814 
    101 H101      -74.8285   24.6375  -77.1834 H         1 UNK         0.3105 
    102 H102      -76.6035   23.1026  -78.3218 H         1 UNK         0.0547 
    103 H103      -77.4365   20.7840  -77.9300 H         1 UNK         0.0837 
    104 H104      -75.7979   20.2450  -77.5629 H         1 UNK         0.0837 
    105 H105      -76.1962   20.8228  -79.1727 H         1 UNK         0.0837 
    106 H106      -77.0599   23.4535  -76.1986 H         1 UNK         0.3020 
    107 H107      -76.6303   21.6291  -73.3024 H         1 UNK         0.1245 
    108 H108      -74.4878   23.3145  -73.3278 H         1 UNK         0.0781 
    109 H109      -75.5141   23.0384  -71.9743 H         1 UNK         0.0781 
    110 H110      -75.4605   25.2447  -70.5372 H         1 UNK         0.0836 
    111 H111      -77.0309   24.5679  -70.9016 H         1 UNK         0.0836 
    112 H112      -77.8940   24.1659  -73.9554 H         1 UNK         0.3022 
    113 H113      -80.9848   22.5640  -74.9041 H         1 UNK         0.0747 
    114 H114      -81.6917   24.4453  -73.3842 H         1 UNK         0.0793 
    115 H115      -81.1029   23.0414  -72.5073 H         1 UNK         0.0793 
    116 H116      -80.0800   24.4568  -72.6696 H         1 UNK         0.0793 
    117 H117      -79.7764   25.2305  -75.0921 H         1 UNK         0.3047 
    118 H118      -79.0114   24.9871  -78.5160 H         1 UNK         0.0822 
    119 H119      -81.6593   26.1948  -77.5532 H         1 UNK         0.0807 
    120 H120      -81.4592   25.0790  -78.8959 H         1 UNK         0.0807 
    121 H121      -80.7723   26.6925  -78.9941 H         1 UNK         0.0807 
    122 H122      -79.5481   27.1917  -76.6862 H         1 UNK         0.2946 
    123 H123      -76.3323   27.1999  -75.2340 H         1 UNK         0.1144 
    124 H124      -75.9534   29.4081  -76.2226 H         1 UNK         0.0793 
    125 H125      -77.2891   29.1961  -77.3582 H         1 UNK         0.0793 
    126 H126      -75.8354   28.2294  -77.5167 H         1 UNK         0.0793 
    127 H127      -78.1993   29.2477  -75.0927 H         1 UNK         0.2896 
@<TRIPOS>BOND
     1    1    2 1    
     2    1   67 1    
     3    1   68 1    
     4    1   69 1    
     5    2    3 2    
     6    2    4 am   BACKBONE|DICT|INTERRES
     7    4    5 1    
     8    4   70 1    
     9    5    6 1    
    10    5   65 1    
    11    5   71 1    
    12    6    7 1    
    13    6   72 1    
    14    6   73 1    
    15    7    8 1    
    16    8    9 1    
    17    8   74 1    
    18    8   75 1    
    19    9   10 ar   
    20    9   14 ar   
    21   10   11 ar   
    22   10   76 1    
    23   11   12 ar   
    24   11   48 1    
    25   12   13 ar   
    26   12   77 1    
    27   13   14 ar   
    28   13   15 1    
    29   14   78 1    
    30   15   16 1    
    31   15   79 1    
    32   15   80 1    
    33   16   17 1    
    34   17   18 1    
    35   17   81 1    
    36   17   82 1    
    37   18   19 1    
    38   18   22 1    
    39   18   83 1    
    40   19   20 am   BACKBONE|DICT|INTERRES
    41   19   21 2    
    42   20   84 1    
    43   20   85 1    
    44   22   23 am   BACKBONE|DICT|INTERRES
    45   22   86 1    
    46   23   24 2    
    47   23   25 1    
    48   25   26 1    
    49   25   27 1    
    50   25   87 1    
    51   26   88 1    
    52   26   89 1    
    53   26   90 1    
    54   27   28 am   BACKBONE|DICT|INTERRES
    55   27   91 1    
    56   28   29 2    
    57   28   30 1    
    58   30   31 1    
    59   30   32 1    
    60   30   92 1    
    61   31   93 1    
    62   31   94 1    
    63   31   95 1    
    64   32   33 am   BACKBONE|DICT|INTERRES
    65   32   96 1    
    66   33   34 2    
    67   33   35 1    
    68   35   36 1    
    69   35   37 1    
    70   35   97 1    
    71   36   98 1    
    72   36   99 1    
    73   36  100 1    
    74   37   38 am   BACKBONE|DICT|INTERRES
    75   37  101 1    
    76   38   39 2    
    77   38   40 1    
    78   40   41 1    
    79   40   42 1    
    80   40  102 1    
    81   41  103 1    
    82   41  104 1    
    83   41  105 1    
    84   42   43 am   BACKBONE|DICT|INTERRES
    85   42  106 1    
    86   43   44 2    
    87   43   45 1    
    88   45   46 1    
    89   45   49 1    
    90   45  107 1    
    91   46   47 1    
    92   46  108 1    
    93   46  109 1    
    94   47   48 1    
    95   48  110 1    
    96   48  111 1    
    97   49   50 am   BACKBONE|DICT|INTERRES
    98   49  112 1    
    99   50   51 2    
   100   50   52 1    
   101   52   53 1    
   102   52   54 1    
   103   52  113 1    
   104   53  114 1    
   105   53  115 1    
   106   53  116 1    
   107   54   55 am   BACKBONE|DICT|INTERRES
   108   54  117 1    
   109   55   56 2    
   110   55   57 1    
   111   57   58 1    
   112   57   59 1    
   113   57  118 1    
   114   58  119 1    
   115   58  120 1    
   116   58  121 1    
   117   59   60 am   BACKBONE|DICT|INTERRES
   118   59  122 1    
   119   60   61 2    
   120   60   62 1    
   121   62   63 1    
   122   62   64 1    
   123   62  123 1    
   124   63  124 1    
   125   63  125 1    
   126   63  126 1    
   127   64   65 am   BACKBONE|DICT|INTERRES
   128   64  127 1    
   129   65   66 2    
@<TRIPOS>SUBSTRUCTURE
     1 UNK         1 GROUP             0       ****    0 ROOT    
