@<TRIPOS>MOLECULE
3R135
127   129    1
SMALL
USER_CHARGES


@<TRIPOS>ATOM
      1 CA        -85.6448   27.8644  -70.7412 C.3       0 UNK        -0.1998 
      2 C         -84.3565   27.5663  -71.4940 C.2       0 UNK         0.4909 
      3 O         -83.5855   26.7076  -71.0643 O.2       0 UNK        -0.5240 
      4 N         -84.1204   28.2753  -72.6071 N.am      1 UNK        -0.4739 
      5 CA        -82.9736   28.1156  -73.5114 C.3       1 UNK         0.0864 
      6 C6        -81.6146   28.4323  -72.8218 C.3       11 UNK        -0.0881 
      7 S7        -80.3715   29.0933  -73.9879 S.3       11 UNK        -0.2682 
      8 C8        -79.3090   30.0835  -72.8853 C.3       11 UNK         0.0289 
      9 C9        -78.1345   29.2815  -72.3377 C.ar      11 UNK        -0.0687 
     10 C10       -78.3500   28.2009  -71.4792 C.ar      11 UNK        -0.0823 
     11 C11       -77.2766   27.4594  -70.9822 C.ar      11 UNK        -0.0830 
     12 C12       -75.9720   27.8365  -71.3127 C.ar      11 UNK        -0.1021 
     13 C13       -75.7316   28.9274  -72.1544 C.ar      11 UNK        -0.0753 
     14 C14       -76.8243   29.6355  -72.6741 C.ar      11 UNK        -0.0933 
     15 C15       -74.2834   29.2819  -72.4968 C.3       11 UNK         0.0166 
     16 S16       -73.9897   31.0475  -72.8681 S.3       11 UNK        -0.2615 
     17 C17       -74.2775   31.1008  -74.6763 C.3       11 UNK        -0.0865 
     18 CA        -72.9777   31.2928  -75.5034 C.3       10 UNK         0.0862 
     19 C         -72.4913   32.7730  -75.4873 C.2       10 UNK         0.5551 
     20 N         -71.3159   33.0842  -74.9540 N.am      10 UNK        -0.7319 
     21 O         -73.1923   33.6530  -75.9811 O.2       10 UNK        -0.5018 
     22 N         -71.9651   30.2912  -75.1367 N.am      10 UNK        -0.4509 
     23 C         -70.9042   29.9435  -75.8733 C.2       10 UNK         0.4899 
     24 O         -70.6565   30.3868  -76.9943 O.2       10 UNK        -0.4839 
     25 CA        -69.9712   28.9109  -75.2373 C.3       9 UNK         0.0222 
     26 CB        -69.3272   29.4692  -73.9484 C.3       9 UNK        -0.1966 
     27 N         -70.7195   27.6780  -74.9893 N.am      9 UNK        -0.4218 
     28 C         -70.1915   26.5084  -74.6021 C.2       9 UNK         0.5020 
     29 O         -68.9976   26.3415  -74.3476 O.2       9 UNK        -0.5274 
     30 CA        -71.1479   25.3064  -74.4890 C.3       8 UNK         0.0270 
     31 CB        -71.6812   25.1844  -73.0527 C.3       8 UNK        -0.1976 
     32 N         -72.2691   25.3535  -75.4347 N.am      8 UNK        -0.4313 
     33 C         -72.1316   25.2855  -76.7695 C.2       8 UNK         0.5041 
     34 O         -71.0437   25.1274  -77.3260 O.2       8 UNK        -0.5577 
     35 CA        -73.3895   25.4094  -77.6535 C.3       7 UNK         0.0284 
     36 CB        -73.7020   24.0606  -78.3241 C.3       7 UNK        -0.1958 
     37 N         -74.5925   25.8924  -76.9705 N.am      7 UNK        -0.4454 
     38 C         -74.7365   27.0909  -76.3885 C.2       7 UNK         0.5089 
     39 O         -73.8616   27.9565  -76.3806 O.2       7 UNK        -0.5125 
     40 CA        -76.0514   27.3360  -75.6256 C.3       6 UNK         0.0408 
     41 CB        -77.1237   27.9216  -76.5538 C.3       6 UNK        -0.1791 
     42 N         -76.5772   26.1439  -74.9508 N.am      6 UNK        -0.4762 
     43 C         -75.9118   25.4320  -74.0264 C.2       6 UNK         0.5007 
     44 O         -74.7610   25.6862  -73.6705 O.2       6 UNK        -0.5032 
     45 CA        -76.6181   24.1867  -73.4624 C.3       5 UNK         0.0783 
     46 C46       -77.6521   24.5284  -72.3589 C.3       11 UNK        -0.0857 
     47 S47       -76.8419   24.7056  -70.7307 S.3       11 UNK        -0.2512 
     48 C48       -77.5376   26.2604  -70.0796 C.3       11 UNK         0.0225 
     49 N         -77.2022   23.4064  -74.5544 N.am      5 UNK        -0.4615 
     50 C         -76.5115   22.5234  -75.2903 C.2       4 UNK         0.5053 
     51 O         -75.3401   22.2164  -75.0696 O.2       4 UNK        -0.5105 
     52 CA        -77.2375   21.8717  -76.4805 C.3       4 UNK         0.0263 
     53 CB        -77.8805   20.5423  -76.0539 C.3       4 UNK        -0.1981 
     54 N         -78.2573   22.7296  -77.0870 N.am      4 UNK        -0.4224 
     55 C         -78.0066   23.8874  -77.7143 C.2       3 UNK         0.4895 
     56 O         -76.8808   24.3565  -77.8691 O.2       3 UNK        -0.5091 
     57 CA        -79.2263   24.6822  -78.2055 C.3       3 UNK         0.0250 
     58 CB        -79.6487   24.2110  -79.6061 C.3       3 UNK        -0.1996 
     59 N         -80.3752   24.6190  -77.2953 N.am      3 UNK        -0.4254 
     60 C         -80.3624   25.0242  -76.0182 C.2       2 UNK         0.5004 
     61 O         -79.3594   25.4431  -75.4322 O.2       2 UNK        -0.5226 
     62 CA        -81.6791   24.9154  -75.2505 C.3       2 UNK         0.0269 
     63 CB        -81.6503   23.7240  -74.2776 C.3       2 UNK        -0.1926 
     64 N         -81.8531   26.1574  -74.5098 N.am      2 UNK        -0.4687 
     65 C         -83.0205   26.7510  -74.2424 C.2       1 UNK         0.5165 
     66 O         -84.1106   26.2756  -74.5730 O.2       1 UNK        -0.5079 
     67 H67       -86.2263   28.6510  -71.2217 H         1 UNK         0.0900 
     68 H68       -85.4196   28.1830  -69.7237 H         1 UNK         0.0900 
     69 H69       -86.2638   26.9691  -70.6891 H         1 UNK         0.0900 
     70 H70       -84.8141   28.9429  -72.9150 H         1 UNK         0.2959 
     71 H71       -83.1336   28.8614  -74.2919 H         1 UNK         0.1079 
     72 H72       -81.7731   29.1842  -72.0475 H         1 UNK         0.0837 
     73 H73       -81.2242   27.5563  -72.3025 H         1 UNK         0.0837 
     74 H74       -78.9465   30.9415  -73.4533 H         1 UNK         0.0685 
     75 H75       -79.8884   30.4971  -72.0592 H         1 UNK         0.0685 
     76 H76       -79.3566   27.9312  -71.1997 H         1 UNK         0.1434 
     77 H77       -75.1403   27.2636  -70.9253 H         1 UNK         0.1329 
     78 H78       -76.6633   30.4713  -73.3383 H         1 UNK         0.1335 
     79 H79       -73.6443   29.0223  -71.6514 H         1 UNK         0.0680 
     80 H80       -73.9488   28.6606  -73.3288 H         1 UNK         0.0680 
     81 H81       -74.9990   31.8908  -74.8935 H         1 UNK         0.1032 
     82 H82       -74.7663   30.1797  -74.9926 H         1 UNK         0.1032 
     83 H83       -73.2408   31.0950  -76.5445 H         1 UNK         0.0461 
     84 H84       -71.0106   34.0446  -74.9543 H         1 UNK         0.3453 
     85 H85       -70.7389   32.3693  -74.5429 H         1 UNK         0.3453 
     86 H86       -72.0682   29.8996  -74.2128 H         1 UNK         0.2984 
     87 H87       -69.1797   28.6899  -75.9564 H         1 UNK         0.0554 
     88 H88       -68.5300   28.8216  -73.5843 H         1 UNK         0.0847 
     89 H89       -70.0530   29.5831  -73.1426 H         1 UNK         0.0847 
     90 H90       -68.8783   30.4472  -74.1272 H         1 UNK         0.0847 
     91 H91       -71.7017   27.7029  -75.2395 H         1 UNK         0.3141 
     92 H92       -70.5700   24.4069  -74.7116 H         1 UNK         0.0743 
     93 H93       -72.2529   26.0656  -72.7582 H         1 UNK         0.0784 
     94 H94       -72.3264   24.3129  -72.9399 H         1 UNK         0.0784 
     95 H95       -70.8620   25.0759  -72.3407 H         1 UNK         0.0784 
     96 H96       -73.1955   25.4748  -75.0367 H         1 UNK         0.3213 
     97 H97       -73.1502   26.1316  -78.4367 H         1 UNK         0.0855 
     98 H98       -72.8253   23.6587  -78.8340 H         1 UNK         0.0814 
     99 H99       -74.4865   24.1634  -79.0737 H         1 UNK         0.0814 
    100 H100      -74.0276   23.3163  -77.5961 H         1 UNK         0.0814 
    101 H101      -75.3978   25.2718  -76.9872 H         1 UNK         0.3105 
    102 H102      -75.8439   28.0711  -74.8497 H         1 UNK         0.0547 
    103 H103      -76.7809   28.8532  -77.0056 H         1 UNK         0.0837 
    104 H104      -77.3691   27.2361  -77.3642 H         1 UNK         0.0837 
    105 H105      -78.0421   28.1428  -76.0091 H         1 UNK         0.0837 
    106 H106      -77.5307   25.8731  -75.1816 H         1 UNK         0.3020 
    107 H107      -75.8402   23.5706  -73.0038 H         1 UNK         0.1245 
    108 H108      -78.3749   23.7172  -72.2594 H         1 UNK         0.0781 
    109 H109      -78.2372   25.4146  -72.6126 H         1 UNK         0.0781 
    110 H110      -77.1019   26.4566  -69.0991 H         1 UNK         0.0836 
    111 H111      -78.6072   26.1197  -69.9155 H         1 UNK         0.0836 
    112 H112      -78.1390   23.6597  -74.8384 H         1 UNK         0.3022 
    113 H113      -76.4858   21.6597  -77.2441 H         1 UNK         0.0747 
    114 H114      -78.3242   20.0244  -76.9044 H         1 UNK         0.0793 
    115 H115      -77.1372   19.8712  -75.6208 H         1 UNK         0.0793 
    116 H116      -78.6600   20.6914  -75.3055 H         1 UNK         0.0793 
    117 H117      -79.2170   22.4270  -77.0072 H         1 UNK         0.3047 
    118 H118      -78.9266   25.7289  -78.2781 H         1 UNK         0.0822 
    119 H119      -80.4467   24.8337  -80.0110 H         1 UNK         0.0807 
    120 H120      -79.9985   23.1779  -79.5990 H         1 UNK         0.0807 
    121 H121      -78.8122   24.2668  -80.3045 H         1 UNK         0.0807 
    122 H122      -81.2405   24.2787  -77.6903 H         1 UNK         0.2946 
    123 H123      -82.5004   24.7881  -75.9598 H         1 UNK         0.1144 
    124 H124      -81.5066   22.7841  -74.8119 H         1 UNK         0.0793 
    125 H125      -82.5866   23.6431  -73.7251 H         1 UNK         0.0793 
    126 H126      -80.8420   23.8162  -73.5507 H         1 UNK         0.0793 
    127 H127      -80.9903   26.6356  -74.2757 H         1 UNK         0.2896 
@<TRIPOS>BOND
     1    1    2 1    
     2    1   67 1    
     3    1   68 1    
     4    1   69 1    
     5    2    3 2    
     6    2    4 am   BACKBONE|DICT|INTERRES
     7    4    5 1    
     8    4   70 1    
     9    5    6 1    
    10    5   65 1    
    11    5   71 1    
    12    6    7 1    
    13    6   72 1    
    14    6   73 1    
    15    7    8 1    
    16    8    9 1    
    17    8   74 1    
    18    8   75 1    
    19    9   10 ar   
    20    9   14 ar   
    21   10   11 ar   
    22   10   76 1    
    23   11   12 ar   
    24   11   48 1    
    25   12   13 ar   
    26   12   77 1    
    27   13   14 ar   
    28   13   15 1    
    29   14   78 1    
    30   15   16 1    
    31   15   79 1    
    32   15   80 1    
    33   16   17 1    
    34   17   18 1    
    35   17   81 1    
    36   17   82 1    
    37   18   19 1    
    38   18   22 1    
    39   18   83 1    
    40   19   20 am   BACKBONE|DICT|INTERRES
    41   19   21 2    
    42   20   84 1    
    43   20   85 1    
    44   22   23 am   BACKBONE|DICT|INTERRES
    45   22   86 1    
    46   23   24 2    
    47   23   25 1    
    48   25   26 1    
    49   25   27 1    
    50   25   87 1    
    51   26   88 1    
    52   26   89 1    
    53   26   90 1    
    54   27   28 am   BACKBONE|DICT|INTERRES
    55   27   91 1    
    56   28   29 2    
    57   28   30 1    
    58   30   31 1    
    59   30   32 1    
    60   30   92 1    
    61   31   93 1    
    62   31   94 1    
    63   31   95 1    
    64   32   33 am   BACKBONE|DICT|INTERRES
    65   32   96 1    
    66   33   34 2    
    67   33   35 1    
    68   35   36 1    
    69   35   37 1    
    70   35   97 1    
    71   36   98 1    
    72   36   99 1    
    73   36  100 1    
    74   37   38 am   BACKBONE|DICT|INTERRES
    75   37  101 1    
    76   38   39 2    
    77   38   40 1    
    78   40   41 1    
    79   40   42 1    
    80   40  102 1    
    81   41  103 1    
    82   41  104 1    
    83   41  105 1    
    84   42   43 am   BACKBONE|DICT|INTERRES
    85   42  106 1    
    86   43   44 2    
    87   43   45 1    
    88   45   46 1    
    89   45   49 1    
    90   45  107 1    
    91   46   47 1    
    92   46  108 1    
    93   46  109 1    
    94   47   48 1    
    95   48  110 1    
    96   48  111 1    
    97   49   50 am   BACKBONE|DICT|INTERRES
    98   49  112 1    
    99   50   51 2    
   100   50   52 1    
   101   52   53 1    
   102   52   54 1    
   103   52  113 1    
   104   53  114 1    
   105   53  115 1    
   106   53  116 1    
   107   54   55 am   BACKBONE|DICT|INTERRES
   108   54  117 1    
   109   55   56 2    
   110   55   57 1    
   111   57   58 1    
   112   57   59 1    
   113   57  118 1    
   114   58  119 1    
   115   58  120 1    
   116   58  121 1    
   117   59   60 am   BACKBONE|DICT|INTERRES
   118   59  122 1    
   119   60   61 2    
   120   60   62 1    
   121   62   63 1    
   122   62   64 1    
   123   62  123 1    
   124   63  124 1    
   125   63  125 1    
   126   63  126 1    
   127   64   65 am   BACKBONE|DICT|INTERRES
   128   64  127 1    
   129   65   66 2    
@<TRIPOS>SUBSTRUCTURE
     1 UNK         1 GROUP             0       ****    0 ROOT    
