@<TRIPOS>MOLECULE
3R135
127   129    1
SMALL
USER_CHARGES


@<TRIPOS>ATOM
      1 CA        -80.4566   25.5815  -69.4343 C.3       0 UNK        -0.1998 
      2 C         -81.6197   25.8344  -70.3814 C.2       0 UNK         0.4909 
      3 O         -82.7197   25.3333  -70.1478 O.2       0 UNK        -0.5240 
      4 N         -81.3823   26.6014  -71.4537 N.am      1 UNK        -0.4739 
      5 CA        -82.3793   26.9309  -72.4851 C.3       1 UNK         0.0864 
      6 C6        -82.1140   28.3118  -73.1413 C.3       11 UNK        -0.0881 
      7 S7        -82.1448   29.6606  -71.9044 S.3       11 UNK        -0.2682 
      8 C8        -80.9216   30.8557  -72.5585 C.3       11 UNK         0.0289 
      9 C9        -79.4853   30.3449  -72.6974 C.ar      11 UNK        -0.0687 
     10 C10       -79.0226   29.2053  -72.0278 C.ar      11 UNK        -0.0823 
     11 C11       -77.7359   28.7157  -72.2578 C.ar      11 UNK        -0.0830 
     12 C12       -76.8778   29.4119  -73.1107 C.ar      11 UNK        -0.1021 
     13 C13       -77.2957   30.5917  -73.7324 C.ar      11 UNK        -0.0753 
     14 C14       -78.6041   31.0427  -73.5312 C.ar      11 UNK        -0.0933 
     15 C15       -76.3569   31.3554  -74.6578 C.3       11 UNK         0.0166 
     16 S16       -75.3308   32.5743  -73.7757 S.3       11 UNK        -0.2615 
     17 C17       -74.0212   31.5329  -73.0392 C.3       11 UNK        -0.0865 
     18 CA        -72.8962   31.1311  -74.0361 C.3       10 UNK         0.0862 
     19 C         -71.8744   32.2891  -74.2523 C.2       10 UNK         0.5551 
     20 N         -70.6663   32.2115  -73.7062 N.am      10 UNK        -0.7319 
     21 O         -72.1755   33.2643  -74.9355 O.2       10 UNK        -0.5018 
     22 N         -72.2921   29.8425  -73.6501 N.am      10 UNK        -0.4509 
     23 C         -71.5132   29.0886  -74.4397 C.2       10 UNK         0.4899 
     24 O         -71.2446   29.3733  -75.6067 O.2       10 UNK        -0.4839 
     25 CA        -70.8930   27.8220  -73.8269 C.3       9 UNK         0.0222 
     26 CB        -71.2243   27.6025  -72.3348 C.3       9 UNK        -0.1966 
     27 N         -71.3275   26.6529  -74.5892 N.am      9 UNK        -0.4218 
     28 C         -70.5201   25.7177  -75.1052 C.2       9 UNK         0.5020 
     29 O         -69.2902   25.7556  -75.0371 O.2       9 UNK        -0.5274 
     30 CA        -71.1895   24.5114  -75.7878 C.3       8 UNK         0.0270 
     31 CB        -71.6577   23.4923  -74.7361 C.3       8 UNK        -0.1976 
     32 N         -72.3140   24.8722  -76.6538 N.am      8 UNK        -0.4313 
     33 C         -72.1955   25.4960  -77.8350 C.2       8 UNK         0.5041 
     34 O         -71.1186   25.8295  -78.3310 O.2       8 UNK        -0.5577 
     35 CA        -73.4997   25.7987  -78.5941 C.3       7 UNK         0.0284 
     36 CB        -74.0044   24.5580  -79.3489 C.3       7 UNK        -0.1958 
     37 N         -74.5453   26.2939  -77.6991 N.am      7 UNK        -0.4454 
     38 C         -74.5354   27.5094  -77.1365 C.2       7 UNK         0.5089 
     39 O         -73.7269   28.3903  -77.4233 O.2       7 UNK        -0.5125 
     40 CA        -75.5896   27.7877  -76.0560 C.3       6 UNK         0.0408 
     41 CB        -76.8477   28.4274  -76.6668 C.3       6 UNK        -0.1791 
     42 N         -75.9561   26.5869  -75.3022 N.am      6 UNK        -0.4762 
     43 C         -75.1848   26.0060  -74.3702 C.2       6 UNK         0.5007 
     44 O         -74.0932   26.4518  -74.0215 O.2       6 UNK        -0.5032 
     45 CA        -75.6912   24.6790  -73.7597 C.3       5 UNK         0.0783 
     46 C46       -76.4457   24.8664  -72.4176 C.3       11 UNK        -0.0857 
     47 S47       -77.9033   25.9696  -72.4952 S.3       11 UNK        -0.2512 
     48 C48       -77.2744   27.4290  -71.5964 C.3       11 UNK         0.0225 
     49 N         -76.4606   23.8864  -74.7223 N.am      5 UNK        -0.4615 
     50 C         -75.9298   23.3062  -75.8085 C.2       4 UNK         0.5053 
     51 O         -74.7319   23.3526  -76.0861 O.2       4 UNK        -0.5105 
     52 CA        -76.9070   22.6188  -76.7775 C.3       4 UNK         0.0263 
     53 CB        -77.1877   21.1763  -76.3300 C.3       4 UNK        -0.1981 
     54 N         -78.1722   23.3463  -76.9093 N.am      4 UNK        -0.4224 
     55 C         -78.2961   24.6022  -77.3567 C.2       3 UNK         0.4895 
     56 O         -77.3496   25.2527  -77.7972 O.2       3 UNK        -0.5091 
     57 CA        -79.6736   25.2802  -77.2304 C.3       3 UNK         0.0250 
     58 CB        -80.5113   25.0819  -78.5083 C.3       3 UNK        -0.1996 
     59 N         -80.4234   24.9141  -76.0154 N.am      3 UNK        -0.4254 
     60 C         -80.9722   23.7334  -75.6906 C.2       2 UNK         0.5004 
     61 O         -80.9242   22.7402  -76.4169 O.2       2 UNK        -0.5226 
     62 CA        -81.6185   23.6001  -74.3010 C.3       2 UNK         0.0269 
     63 CB        -80.9226   22.4905  -73.4916 C.3       2 UNK        -0.1926 
     64 N         -81.5856   24.8303  -73.5056 N.am      2 UNK        -0.4687 
     65 C         -82.5031   25.8082  -73.5409 C.2       1 UNK         0.5165 
     66 O         -83.4297   25.8353  -74.3513 O.2       1 UNK        -0.5079 
     67 H67       -80.7245   25.8834  -68.4222 H         1 UNK         0.0900 
     68 H68       -79.5645   26.1339  -69.7259 H         1 UNK         0.0900 
     69 H69       -80.2088   24.5205  -69.4198 H         1 UNK         0.0900 
     70 H70       -80.4544   26.9660  -71.6101 H         1 UNK         0.2959 
     71 H71       -83.3590   26.9893  -72.0049 H         1 UNK         0.1079 
     72 H72       -81.1605   28.3078  -73.6718 H         1 UNK         0.0837 
     73 H73       -82.8764   28.5340  -73.8905 H         1 UNK         0.0837 
     74 H74       -80.9132   31.7283  -71.9042 H         1 UNK         0.0685 
     75 H75       -81.2782   31.2019  -73.5299 H         1 UNK         0.0685 
     76 H76       -79.6678   28.6788  -71.3430 H         1 UNK         0.1434 
     77 H77       -75.8838   29.0287  -73.2889 H         1 UNK         0.1329 
     78 H78       -78.9414   31.9382  -74.0354 H         1 UNK         0.1335 
     79 H79       -76.9389   31.8806  -75.4166 H         1 UNK         0.0680 
     80 H80       -75.7106   30.6712  -75.2036 H         1 UNK         0.0680 
     81 H81       -73.6025   32.0618  -72.1806 H         1 UNK         0.1032 
     82 H82       -74.4932   30.6500  -72.6129 H         1 UNK         0.1032 
     83 H83       -73.3585   30.9557  -75.0093 H         1 UNK         0.0461 
     84 H84       -70.0079   32.9598  -73.8560 H         1 UNK         0.3453 
     85 H85       -70.4055   31.4138  -73.1497 H         1 UNK         0.3453 
     86 H86       -72.4412   29.5426  -72.6984 H         1 UNK         0.2984 
     87 H87       -69.8120   27.9484  -73.9121 H         1 UNK         0.0554 
     88 H88       -70.7221   26.7129  -71.9542 H         1 UNK         0.0847 
     89 H89       -72.2937   27.4677  -72.1666 H         1 UNK         0.0847 
     90 H90       -70.8861   28.4394  -71.7224 H         1 UNK         0.0847 
     91 H91       -72.3357   26.5397  -74.6689 H         1 UNK         0.3141 
     92 H92       -70.4350   24.0252  -76.4101 H         1 UNK         0.0743 
     93 H93       -72.4198   23.9117  -74.0791 H         1 UNK         0.0784 
     94 H94       -72.0734   22.6000  -75.2048 H         1 UNK         0.0784 
     95 H95       -70.8263   23.1709  -74.1073 H         1 UNK         0.0784 
     96 H96       -73.2347   24.5494  -76.3678 H         1 UNK         0.3213 
     97 H97       -73.2849   26.5763  -79.3307 H         1 UNK         0.0855 
     98 H98       -74.2204   23.7288  -78.6754 H         1 UNK         0.0814 
     99 H99       -73.2579   24.2093  -80.0636 H         1 UNK         0.0814 
    100 H100      -74.9133   24.7778  -79.9095 H         1 UNK         0.0814 
    101 H101      -75.3109   25.6670  -77.4779 H         1 UNK         0.3105 
    102 H102      -75.1426   28.4965  -75.3593 H         1 UNK         0.0547 
    103 H103      -76.6064   29.3805  -77.1385 H         1 UNK         0.0837 
    104 H104      -77.2956   27.7991  -77.4355 H         1 UNK         0.0837 
    105 H105      -77.6068   28.6221  -75.9094 H         1 UNK         0.0837 
    106 H106      -76.8251   26.1401  -75.5541 H         1 UNK         0.3020 
    107 H107      -74.7949   24.0982  -73.5299 H         1 UNK         0.1245 
    108 H108      -75.7524   25.2179  -71.6519 H         1 UNK         0.0781 
    109 H109      -76.7872   23.8952  -72.0559 H         1 UNK         0.0781 
    110 H110      -76.1843   27.4175  -71.5579 H         1 UNK         0.0836 
    111 H111      -77.6123   27.3941  -70.5600 H         1 UNK         0.0836 
    112 H112      -77.4538   23.8159  -74.5605 H         1 UNK         0.3022 
    113 H113      -76.4340   22.5905  -77.7613 H         1 UNK         0.0747 
    114 H114      -77.8157   20.6533  -77.0517 H         1 UNK         0.0793 
    115 H115      -76.2604   20.6089  -76.2379 H         1 UNK         0.0793 
    116 H116      -77.6901   21.1420  -75.3624 H         1 UNK         0.0793 
    117 H117      -79.0240   22.8715  -76.6224 H         1 UNK         0.3047 
    118 H118      -79.4785   26.3498  -77.1372 H         1 UNK         0.0822 
    119 H119      -81.4644   25.6066  -78.4427 H         1 UNK         0.0807 
    120 H120      -80.7198   24.0301  -78.7052 H         1 UNK         0.0807 
    121 H121      -79.9851   25.4735  -79.3799 H         1 UNK         0.0807 
    122 H122      -80.4977   25.6446  -75.3216 H         1 UNK         0.2946 
    123 H123      -82.6587   23.3069  -74.4620 H         1 UNK         0.1144 
    124 H124      -81.4027   22.3468  -72.5233 H         1 UNK         0.0793 
    125 H125      -79.8707   22.7178  -73.3136 H         1 UNK         0.0793 
    126 H126      -80.9659   21.5335  -74.0137 H         1 UNK         0.0793 
    127 H127      -80.8576   24.8981  -72.8087 H         1 UNK         0.2896 
@<TRIPOS>BOND
     1    1    2 1    
     2    1   67 1    
     3    1   68 1    
     4    1   69 1    
     5    2    3 2    
     6    2    4 am   BACKBONE|DICT|INTERRES
     7    4    5 1    
     8    4   70 1    
     9    5    6 1    
    10    5   65 1    
    11    5   71 1    
    12    6    7 1    
    13    6   72 1    
    14    6   73 1    
    15    7    8 1    
    16    8    9 1    
    17    8   74 1    
    18    8   75 1    
    19    9   10 ar   
    20    9   14 ar   
    21   10   11 ar   
    22   10   76 1    
    23   11   12 ar   
    24   11   48 1    
    25   12   13 ar   
    26   12   77 1    
    27   13   14 ar   
    28   13   15 1    
    29   14   78 1    
    30   15   16 1    
    31   15   79 1    
    32   15   80 1    
    33   16   17 1    
    34   17   18 1    
    35   17   81 1    
    36   17   82 1    
    37   18   19 1    
    38   18   22 1    
    39   18   83 1    
    40   19   20 am   BACKBONE|DICT|INTERRES
    41   19   21 2    
    42   20   84 1    
    43   20   85 1    
    44   22   23 am   BACKBONE|DICT|INTERRES
    45   22   86 1    
    46   23   24 2    
    47   23   25 1    
    48   25   26 1    
    49   25   27 1    
    50   25   87 1    
    51   26   88 1    
    52   26   89 1    
    53   26   90 1    
    54   27   28 am   BACKBONE|DICT|INTERRES
    55   27   91 1    
    56   28   29 2    
    57   28   30 1    
    58   30   31 1    
    59   30   32 1    
    60   30   92 1    
    61   31   93 1    
    62   31   94 1    
    63   31   95 1    
    64   32   33 am   BACKBONE|DICT|INTERRES
    65   32   96 1    
    66   33   34 2    
    67   33   35 1    
    68   35   36 1    
    69   35   37 1    
    70   35   97 1    
    71   36   98 1    
    72   36   99 1    
    73   36  100 1    
    74   37   38 am   BACKBONE|DICT|INTERRES
    75   37  101 1    
    76   38   39 2    
    77   38   40 1    
    78   40   41 1    
    79   40   42 1    
    80   40  102 1    
    81   41  103 1    
    82   41  104 1    
    83   41  105 1    
    84   42   43 am   BACKBONE|DICT|INTERRES
    85   42  106 1    
    86   43   44 2    
    87   43   45 1    
    88   45   46 1    
    89   45   49 1    
    90   45  107 1    
    91   46   47 1    
    92   46  108 1    
    93   46  109 1    
    94   47   48 1    
    95   48  110 1    
    96   48  111 1    
    97   49   50 am   BACKBONE|DICT|INTERRES
    98   49  112 1    
    99   50   51 2    
   100   50   52 1    
   101   52   53 1    
   102   52   54 1    
   103   52  113 1    
   104   53  114 1    
   105   53  115 1    
   106   53  116 1    
   107   54   55 am   BACKBONE|DICT|INTERRES
   108   54  117 1    
   109   55   56 2    
   110   55   57 1    
   111   57   58 1    
   112   57   59 1    
   113   57  118 1    
   114   58  119 1    
   115   58  120 1    
   116   58  121 1    
   117   59   60 am   BACKBONE|DICT|INTERRES
   118   59  122 1    
   119   60   61 2    
   120   60   62 1    
   121   62   63 1    
   122   62   64 1    
   123   62  123 1    
   124   63  124 1    
   125   63  125 1    
   126   63  126 1    
   127   64   65 am   BACKBONE|DICT|INTERRES
   128   64  127 1    
   129   65   66 2    
@<TRIPOS>SUBSTRUCTURE
     1 UNK         1 GROUP             0       ****    0 ROOT    
