@<TRIPOS>MOLECULE
3R135
127   129    1
SMALL
USER_CHARGES


@<TRIPOS>ATOM
      1 CA        -82.3647   27.7761  -69.9935 C.3       0 UNK        -0.1998 
      2 C         -82.7914   27.5328  -71.4333 C.2       0 UNK         0.4909 
      3 O         -83.7693   26.8247  -71.6731 O.2       0 UNK        -0.5240 
      4 N         -82.0604   28.1178  -72.3912 N.am      1 UNK        -0.4739 
      5 CA        -82.3020   28.0258  -73.8404 C.3       1 UNK         0.0864 
      6 C6        -81.4073   28.9946  -74.6649 C.3       11 UNK        -0.0881 
      7 S7        -81.1914   30.6529  -73.9218 S.3       11 UNK        -0.2682 
      8 C8        -79.3732   30.8391  -73.9333 C.3       11 UNK         0.0289 
      9 C9        -78.6804   30.2923  -72.6854 C.ar      11 UNK        -0.0687 
     10 C10       -78.8722   28.9730  -72.2647 C.ar      11 UNK        -0.0823 
     11 C11       -78.1904   28.4607  -71.1570 C.ar      11 UNK        -0.0830 
     12 C12       -77.2954   29.2794  -70.4651 C.ar      11 UNK        -0.1021 
     13 C13       -77.0543   30.5861  -70.9015 C.ar      11 UNK        -0.0753 
     14 C14       -77.7664   31.0930  -71.9937 C.ar      11 UNK        -0.0933 
     15 C15       -75.9691   31.4286  -70.2453 C.3       11 UNK         0.0166 
     16 S16       -74.3032   30.7040  -70.4465 S.3       11 UNK        -0.2615 
     17 C17       -74.2710   30.2352  -72.2166 C.3       11 UNK        -0.0865 
     18 CA        -72.9019   29.6734  -72.6801 C.3       10 UNK         0.0862 
     19 C         -72.5460   28.3324  -71.9895 C.2       10 UNK         0.5551 
     20 N         -71.5013   28.3047  -71.1734 N.am      10 UNK        -0.7319 
     21 O         -73.2210   27.3236  -72.1767 O.2       10 UNK        -0.5018 
     22 N         -72.8970   29.4545  -74.1295 N.am      10 UNK        -0.4509 
     23 C         -72.1008   30.0675  -75.0120 C.2       10 UNK         0.4899 
     24 O         -71.3434   30.9977  -74.7301 O.2       10 UNK        -0.4839 
     25 CA        -72.1593   29.5214  -76.4523 C.3       9 UNK         0.0222 
     26 CB        -71.1349   30.1767  -77.4028 C.3       9 UNK        -0.1966 
     27 N         -72.0553   28.0577  -76.4794 N.am      9 UNK        -0.4218 
     28 C         -71.0274   27.2965  -76.0734 C.2       9 UNK         0.5020 
     29 O         -69.9400   27.7429  -75.7051 O.2       9 UNK        -0.5274 
     30 CA        -71.2475   25.7716  -76.0446 C.3       8 UNK         0.0270 
     31 CB        -71.4821   25.2974  -74.6014 C.3       8 UNK        -0.1976 
     32 N         -72.3587   25.3119  -76.8843 N.am      8 UNK        -0.4313 
     33 C         -72.3289   25.2666  -78.2237 C.2       8 UNK         0.5041 
     34 O         -71.3441   25.5727  -78.8972 O.2       8 UNK        -0.5577 
     35 CA        -73.6182   24.8210  -78.9350 C.3       7 UNK         0.0284 
     36 CB        -73.7448   23.2890  -78.9243 C.3       7 UNK        -0.1958 
     37 N         -74.8237   25.4196  -78.3567 N.am      7 UNK        -0.4454 
     38 C         -75.1192   26.7273  -78.3898 C.2       7 UNK         0.5089 
     39 O         -74.4299   27.5740  -78.9580 O.2       7 UNK        -0.5125 
     40 CA        -76.3714   27.1755  -77.6158 C.3       6 UNK         0.0408 
     41 CB        -77.6477   26.9291  -78.4346 C.3       6 UNK        -0.1791 
     42 N         -76.4850   26.5253  -76.3087 N.am      6 UNK        -0.4762 
     43 C         -75.6039   26.6807  -75.3087 C.2       6 UNK         0.5007 
     44 O         -74.6279   27.4280  -75.3638 O.2       6 UNK        -0.5032 
     45 CA        -75.8480   25.8580  -74.0329 C.3       5 UNK         0.0783 
     46 C46       -76.8683   26.6013  -73.1496 C.3       11 UNK        -0.0857 
     47 S47       -77.0166   25.9461  -71.4566 S.3       11 UNK        -0.2512 
     48 C48       -78.3531   26.9934  -70.7761 C.3       11 UNK         0.0225 
     49 N         -76.2536   24.4863  -74.3477 N.am      5 UNK        -0.4615 
     50 C         -75.4666   23.5915  -74.9616 C.2       4 UNK         0.5053 
     51 O         -74.3017   23.8136  -75.2909 O.2       4 UNK        -0.5105 
     52 CA        -76.1065   22.2406  -75.3190 C.3       4 UNK         0.0263 
     53 CB        -76.1516   21.3178  -74.0907 C.3       4 UNK        -0.1981 
     54 N         -77.4534   22.3904  -75.8752 N.am      4 UNK        -0.4224 
     55 C         -77.7348   23.0183  -77.0269 C.2       3 UNK         0.4895 
     56 O         -76.8805   23.4877  -77.7776 O.2       3 UNK        -0.5091 
     57 CA        -79.2218   23.1920  -77.3801 C.3       3 UNK         0.0250 
     58 CB        -79.7284   21.9863  -78.1872 C.3       3 UNK        -0.1996 
     59 N         -80.0789   23.3963  -76.2069 N.am      3 UNK        -0.4254 
     60 C         -79.9923   24.4451  -75.3771 C.2       2 UNK         0.5004 
     61 O         -79.1676   25.3548  -75.5033 O.2       2 UNK        -0.5226 
     62 CA        -80.9354   24.4298  -74.1634 C.3       2 UNK         0.0269 
     63 CB        -80.2625   23.7113  -72.9818 C.3       2 UNK        -0.1926 
     64 N         -81.2982   25.7823  -73.7434 N.am      2 UNK        -0.4687 
     65 C         -82.1431   26.5925  -74.3972 C.2       1 UNK         0.5165 
     66 O         -82.7712   26.2570  -75.4027 O.2       1 UNK        -0.5079 
     67 H67       -83.1709   28.2564  -69.4396 H         1 UNK         0.0900 
     68 H68       -81.4831   28.4143  -69.9308 H         1 UNK         0.0900 
     69 H69       -82.1328   26.8295  -69.5060 H         1 UNK         0.0900 
     70 H70       -81.3239   28.7556  -72.1237 H         1 UNK         0.2959 
     71 H71       -83.3436   28.3132  -74.0009 H         1 UNK         0.1079 
     72 H72       -80.4246   28.5569  -74.8510 H         1 UNK         0.0837 
     73 H73       -81.8434   29.1339  -75.6561 H         1 UNK         0.0837 
     74 H74       -79.1591   31.9037  -74.0394 H         1 UNK         0.0685 
     75 H75       -78.9512   30.3635  -74.8196 H         1 UNK         0.0685 
     76 H76       -79.5069   28.3152  -72.8329 H         1 UNK         0.1434 
     77 H77       -76.7322   28.8784  -69.6333 H         1 UNK         0.1329 
     78 H78       -77.5739   32.1013  -72.3343 H         1 UNK         0.1335 
     79 H79       -75.9610   32.4389  -70.6574 H         1 UNK         0.0680 
     80 H80       -76.1862   31.5321  -69.1814 H         1 UNK         0.0680 
     81 H81       -74.5247   31.1191  -72.8037 H         1 UNK         0.1032 
     82 H82       -75.0582   29.5050  -72.4120 H         1 UNK         0.1032 
     83 H83       -72.1370   30.4073  -72.4182 H         1 UNK         0.0461 
     84 H84       -71.2655   27.4412  -70.7107 H         1 UNK         0.3453 
     85 H85       -70.9511   29.1321  -71.0041 H         1 UNK         0.3453 
     86 H86       -73.4637   28.6737  -74.4535 H         1 UNK         0.2984 
     87 H87       -73.1551   29.7585  -76.8300 H         1 UNK         0.0554 
     88 H88       -71.2999   31.2526  -77.4698 H         1 UNK         0.0847 
     89 H89       -71.2171   29.7727  -78.4118 H         1 UNK         0.0847 
     90 H90       -70.1093   30.0279  -77.0640 H         1 UNK         0.0847 
     91 H91       -72.9229   27.5766  -76.6852 H         1 UNK         0.3141 
     92 H92       -70.3300   25.3052  -76.4094 H         1 UNK         0.0743 
     93 H93       -70.6730   25.6175  -73.9434 H         1 UNK         0.0784 
     94 H94       -72.4107   25.6994  -74.1954 H         1 UNK         0.0784 
     95 H95       -71.5365   24.2101  -74.5445 H         1 UNK         0.0784 
     96 H96       -73.1838   24.9668  -76.3992 H         1 UNK         0.3213 
     97 H97       -73.5516   25.1484  -79.9748 H         1 UNK         0.0855 
     98 H98       -73.8507   22.8984  -77.9116 H         1 UNK         0.0814 
     99 H99       -72.8639   22.8208  -79.3656 H         1 UNK         0.0814 
    100 H100      -74.6101   22.9596  -79.4999 H         1 UNK         0.0814 
    101 H101      -75.4883   24.7829  -77.9225 H         1 UNK         0.3105 
    102 H102      -76.2873   28.2500  -77.4401 H         1 UNK         0.0547 
    103 H103      -77.6156   27.4777  -79.3767 H         1 UNK         0.0837 
    104 H104      -77.7763   25.8750  -78.6784 H         1 UNK         0.0837 
    105 H105      -78.5362   27.2591  -77.8958 H         1 UNK         0.0837 
    106 H106      -77.2950   25.9323  -76.1544 H         1 UNK         0.3020 
    107 H107      -74.8983   25.8071  -73.4962 H         1 UNK         0.1245 
    108 H108      -77.8548   26.6062  -73.6149 H         1 UNK         0.0781 
    109 H109      -76.5595   27.6444  -73.0593 H         1 UNK         0.0781 
    110 H110      -79.3138   26.6138  -71.1263 H         1 UNK         0.0836 
    111 H111      -78.3663   26.8924  -69.6899 H         1 UNK         0.0836 
    112 H112      -77.2104   24.2432  -74.1422 H         1 UNK         0.3022 
    113 H113      -75.4809   21.7685  -76.0797 H         1 UNK         0.0747 
    114 H114      -75.1543   21.1827  -73.6695 H         1 UNK         0.0793 
    115 H115      -76.5273   20.3283  -74.3518 H         1 UNK         0.0793 
    116 H116      -76.7867   21.7213  -73.3009 H         1 UNK         0.0793 
    117 H117      -78.2193   22.0242  -75.3297 H         1 UNK         0.3047 
    118 H118      -79.3066   24.0811  -78.0081 H         1 UNK         0.0822 
    119 H119      -80.7541   22.1370  -78.5247 H         1 UNK         0.0807 
    120 H120      -79.6975   21.0650  -77.6042 H         1 UNK         0.0807 
    121 H121      -79.1171   21.8292  -79.0773 H         1 UNK         0.0807 
    122 H122      -80.7756   22.6867  -76.0286 H         1 UNK         0.2946 
    123 H123      -81.8503   23.8960  -74.4314 H         1 UNK         0.1144 
    124 H124      -80.0096   22.6817  -73.2383 H         1 UNK         0.0793 
    125 H125      -80.9223   23.6722  -72.1147 H         1 UNK         0.0793 
    126 H126      -79.3403   24.2077  -72.6774 H         1 UNK         0.0793 
    127 H127      -80.8258   26.1471  -72.9318 H         1 UNK         0.2896 
@<TRIPOS>BOND
     1    1    2 1    
     2    1   67 1    
     3    1   68 1    
     4    1   69 1    
     5    2    3 2    
     6    2    4 am   BACKBONE|DICT|INTERRES
     7    4    5 1    
     8    4   70 1    
     9    5    6 1    
    10    5   65 1    
    11    5   71 1    
    12    6    7 1    
    13    6   72 1    
    14    6   73 1    
    15    7    8 1    
    16    8    9 1    
    17    8   74 1    
    18    8   75 1    
    19    9   10 ar   
    20    9   14 ar   
    21   10   11 ar   
    22   10   76 1    
    23   11   12 ar   
    24   11   48 1    
    25   12   13 ar   
    26   12   77 1    
    27   13   14 ar   
    28   13   15 1    
    29   14   78 1    
    30   15   16 1    
    31   15   79 1    
    32   15   80 1    
    33   16   17 1    
    34   17   18 1    
    35   17   81 1    
    36   17   82 1    
    37   18   19 1    
    38   18   22 1    
    39   18   83 1    
    40   19   20 am   BACKBONE|DICT|INTERRES
    41   19   21 2    
    42   20   84 1    
    43   20   85 1    
    44   22   23 am   BACKBONE|DICT|INTERRES
    45   22   86 1    
    46   23   24 2    
    47   23   25 1    
    48   25   26 1    
    49   25   27 1    
    50   25   87 1    
    51   26   88 1    
    52   26   89 1    
    53   26   90 1    
    54   27   28 am   BACKBONE|DICT|INTERRES
    55   27   91 1    
    56   28   29 2    
    57   28   30 1    
    58   30   31 1    
    59   30   32 1    
    60   30   92 1    
    61   31   93 1    
    62   31   94 1    
    63   31   95 1    
    64   32   33 am   BACKBONE|DICT|INTERRES
    65   32   96 1    
    66   33   34 2    
    67   33   35 1    
    68   35   36 1    
    69   35   37 1    
    70   35   97 1    
    71   36   98 1    
    72   36   99 1    
    73   36  100 1    
    74   37   38 am   BACKBONE|DICT|INTERRES
    75   37  101 1    
    76   38   39 2    
    77   38   40 1    
    78   40   41 1    
    79   40   42 1    
    80   40  102 1    
    81   41  103 1    
    82   41  104 1    
    83   41  105 1    
    84   42   43 am   BACKBONE|DICT|INTERRES
    85   42  106 1    
    86   43   44 2    
    87   43   45 1    
    88   45   46 1    
    89   45   49 1    
    90   45  107 1    
    91   46   47 1    
    92   46  108 1    
    93   46  109 1    
    94   47   48 1    
    95   48  110 1    
    96   48  111 1    
    97   49   50 am   BACKBONE|DICT|INTERRES
    98   49  112 1    
    99   50   51 2    
   100   50   52 1    
   101   52   53 1    
   102   52   54 1    
   103   52  113 1    
   104   53  114 1    
   105   53  115 1    
   106   53  116 1    
   107   54   55 am   BACKBONE|DICT|INTERRES
   108   54  117 1    
   109   55   56 2    
   110   55   57 1    
   111   57   58 1    
   112   57   59 1    
   113   57  118 1    
   114   58  119 1    
   115   58  120 1    
   116   58  121 1    
   117   59   60 am   BACKBONE|DICT|INTERRES
   118   59  122 1    
   119   60   61 2    
   120   60   62 1    
   121   62   63 1    
   122   62   64 1    
   123   62  123 1    
   124   63  124 1    
   125   63  125 1    
   126   63  126 1    
   127   64   65 am   BACKBONE|DICT|INTERRES
   128   64  127 1    
   129   65   66 2    
@<TRIPOS>SUBSTRUCTURE
     1 UNK         1 GROUP             0       ****    0 ROOT    
