@<TRIPOS>MOLECULE
3R135
127   129    1
SMALL
USER_CHARGES


@<TRIPOS>ATOM
      1 CA        -84.9540   24.7113  -72.8864 C.3       0 UNK        -0.1998 
      2 C         -83.4464   24.9070  -72.9295 C.2       0 UNK         0.4909 
      3 O         -82.7220   23.9831  -73.3014 O.2       0 UNK        -0.5240 
      4 N         -82.9709   26.1117  -72.5730 N.am      1 UNK        -0.4739 
      5 CA        -81.5513   26.5019  -72.4977 C.3       1 UNK         0.0864 
      6 C6        -80.8322   25.7702  -71.3254 C.3       11 UNK        -0.0881 
      7 S7        -79.2153   26.4266  -70.7826 S.3       11 UNK        -0.2682 
      8 C8        -79.5422   28.1594  -70.3336 C.3       11 UNK         0.0289 
      9 C9        -78.5626   29.0721  -71.0553 C.ar      11 UNK        -0.0687 
     10 C10       -78.8669   29.5900  -72.3187 C.ar      11 UNK        -0.0823 
     11 C11       -77.9467   30.3989  -72.9951 C.ar      11 UNK        -0.0830 
     12 C12       -76.7135   30.6829  -72.3988 C.ar      11 UNK        -0.1021 
     13 C13       -76.3982   30.1699  -71.1365 C.ar      11 UNK        -0.0753 
     14 C14       -77.3321   29.3750  -70.4662 C.ar      11 UNK        -0.0933 
     15 C15       -75.0460   30.4592  -70.5013 C.3       11 UNK         0.0166 
     16 S16       -74.0449   28.9447  -70.3978 S.3       11 UNK        -0.2615 
     17 C17       -72.3633   29.6256  -70.1784 C.3       11 UNK        -0.0865 
     18 CA        -71.6463   29.9351  -71.5270 C.3       10 UNK         0.0862 
     19 C         -70.2121   30.5106  -71.3273 C.2       10 UNK         0.5551 
     20 N         -69.2589   30.2250  -72.2057 N.am      10 UNK        -0.7319 
     21 O         -69.9651   31.2540  -70.3805 O.2       10 UNK        -0.5018 
     22 N         -71.7537   28.8366  -72.5023 N.am      10 UNK        -0.4509 
     23 C         -71.2741   27.5949  -72.3837 C.2       10 UNK         0.4899 
     24 O         -70.5408   27.2274  -71.4653 O.2       10 UNK        -0.4839 
     25 CA        -71.6972   26.5695  -73.4547 C.3       9 UNK         0.0222 
     26 CB        -73.0283   25.9024  -73.0592 C.3       9 UNK        -0.1966 
     27 N         -71.7538   27.0565  -74.8428 N.am      9 UNK        -0.4218 
     28 C         -72.5173   28.0120  -75.3927 C.2       9 UNK         0.5020 
     29 O         -73.3114   28.7156  -74.7685 O.2       9 UNK        -0.5274 
     30 CA        -72.3755   28.2166  -76.9079 C.3       8 UNK         0.0270 
     31 CB        -70.9628   28.6886  -77.3099 C.3       8 UNK        -0.1976 
     32 N         -72.8171   27.0426  -77.6675 N.am      8 UNK        -0.4313 
     33 C         -72.2611   25.8224  -77.7323 C.2       8 UNK         0.5041 
     34 O         -71.1810   25.5410  -77.2079 O.2       8 UNK        -0.5577 
     35 CA        -73.0498   24.7253  -78.4751 C.3       7 UNK         0.0284 
     36 CB        -72.9273   23.3633  -77.7671 C.3       7 UNK        -0.1958 
     37 N         -74.4692   25.0714  -78.5774 N.am      7 UNK        -0.4454 
     38 C         -75.0899   25.4948  -79.6868 C.2       7 UNK         0.5089 
     39 O         -74.5458   25.5636  -80.7891 O.2       7 UNK        -0.5125 
     40 CA        -76.5586   25.9474  -79.5498 C.3       6 UNK         0.0408 
     41 CB        -77.5015   24.8304  -80.0234 C.3       6 UNK        -0.1791 
     42 N         -76.9410   26.3665  -78.1948 N.am      6 UNK        -0.4762 
     43 C         -76.3923   27.3911  -77.5217 C.2       6 UNK         0.5007 
     44 O         -75.5445   28.1358  -78.0141 O.2       6 UNK        -0.5032 
     45 CA        -76.7940   27.5741  -76.0398 C.3       5 UNK         0.0783 
     46 C46       -77.9247   28.6229  -75.8764 C.3       11 UNK        -0.0857 
     47 S47       -77.2725   30.3169  -75.7075 S.3       11 UNK        -0.2512 
     48 C48       -78.2931   30.9925  -74.3556 C.3       11 UNK         0.0225 
     49 N         -77.1154   26.3137  -75.3575 N.am      5 UNK        -0.4615 
     50 C         -76.2788   25.2743  -75.2161 C.2       4 UNK         0.5053 
     51 O         -75.1600   25.2221  -75.7246 O.2       4 UNK        -0.5105 
     52 CA        -76.7835   24.0832  -74.3920 C.3       4 UNK         0.0263 
     53 CB        -76.7011   24.3945  -72.8899 C.3       4 UNK        -0.1981 
     54 N         -78.1622   23.7571  -74.7546 N.am      4 UNK        -0.4224 
     55 C         -78.5045   22.8558  -75.6863 C.2       3 UNK         0.4895 
     56 O         -77.6997   22.1207  -76.2594 O.2       3 UNK        -0.5091 
     57 CA        -79.9956   22.7643  -76.0642 C.3       3 UNK         0.0250 
     58 CB        -80.7094   21.7217  -75.1894 C.3       3 UNK        -0.1996 
     59 N         -80.7064   24.0421  -75.9692 N.am      3 UNK        -0.4254 
     60 C         -80.4116   25.1355  -76.6894 C.2       2 UNK         0.5004 
     61 O         -79.5390   25.1702  -77.5549 O.2       2 UNK        -0.5226 
     62 CA        -81.1725   26.4300  -76.3536 C.3       2 UNK         0.0269 
     63 CB        -82.3920   26.5861  -77.2751 C.3       2 UNK        -0.1926 
     64 N         -81.6061   26.5384  -74.9568 N.am      2 UNK        -0.4687 
     65 C         -80.8316   26.4056  -73.8676 C.2       1 UNK         0.5165 
     66 O         -79.6193   26.1957  -73.9345 O.2       1 UNK        -0.5079 
     67 H67       -85.3271   24.4544  -73.8775 H         1 UNK         0.0900 
     68 H68       -85.2058   23.8982  -72.2063 H         1 UNK         0.0900 
     69 H69       -85.4733   25.6083  -72.5497 H         1 UNK         0.0900 
     70 H70       -83.6276   26.8298  -72.2970 H         1 UNK         0.2959 
     71 H71       -81.5709   27.5674  -72.2779 H         1 UNK         0.1079 
     72 H72       -81.4787   25.7726  -70.4464 H         1 UNK         0.0837 
     73 H73       -80.6903   24.7180  -71.5782 H         1 UNK         0.0837 
     74 H74       -80.5691   28.4507  -70.5483 H         1 UNK         0.0685 
     75 H75       -79.4262   28.2664  -69.2540 H         1 UNK         0.0685 
     76 H76       -79.8177   29.3582  -72.7772 H         1 UNK         0.1434 
     77 H77       -75.9973   31.2996  -72.9249 H         1 UNK         0.1329 
     78 H78       -77.0858   28.9668  -69.4953 H         1 UNK         0.1335 
     79 H79       -75.1866   30.8722  -69.5014 H         1 UNK         0.0680 
     80 H80       -74.5081   31.2123  -71.0791 H         1 UNK         0.0680 
     81 H81       -72.4228   30.5217  -69.5578 H         1 UNK         0.1032 
     82 H82       -71.7818   28.9027  -69.6037 H         1 UNK         0.1032 
     83 H83       -72.1961   30.7554  -71.9891 H         1 UNK         0.0461 
     84 H84       -68.3352   30.6076  -72.0793 H         1 UNK         0.3453 
     85 H85       -69.4556   29.6174  -72.9847 H         1 UNK         0.3453 
     86 H86       -72.3727   29.0073  -73.2931 H         1 UNK         0.2984 
     87 H87       -70.9316   25.7921  -73.4546 H         1 UNK         0.0554 
     88 H88       -72.9767   25.4908  -72.0504 H         1 UNK         0.0847 
     89 H89       -73.2727   25.0811  -73.7326 H         1 UNK         0.0847 
     90 H90       -73.8589   26.6094  -73.0777 H         1 UNK         0.0847 
     91 H91       -71.1941   26.5250  -75.5060 H         1 UNK         0.3141 
     92 H92       -73.0667   29.0161  -77.1797 H         1 UNK         0.0743 
     93 H93       -70.7027   29.6116  -76.7902 H         1 UNK         0.0784 
     94 H94       -70.1912   27.9571  -77.0704 H         1 UNK         0.0784 
     95 H95       -70.9065   28.8931  -78.3791 H         1 UNK         0.0784 
     96 H96       -73.7321   27.1575  -78.0911 H         1 UNK         0.3213 
     97 H97       -72.6065   24.6326  -79.4685 H         1 UNK         0.0855 
     98 H98       -73.2902   23.4108  -76.7395 H         1 UNK         0.0814 
     99 H99       -71.8895   23.0294  -77.7321 H         1 UNK         0.0814 
    100 H100      -73.4958   22.5929  -78.2882 H         1 UNK         0.0814 
    101 H101      -74.9749   25.0853  -77.6951 H         1 UNK         0.3105 
    102 H102      -76.6933   26.8072  -80.2090 H         1 UNK         0.0547 
    103 H103      -78.5329   25.1789  -80.0752 H         1 UNK         0.0837 
    104 H104      -77.2306   24.4820  -81.0210 H         1 UNK         0.0837 
    105 H105      -77.4721   23.9683  -79.3554 H         1 UNK         0.0837 
    106 H106      -77.6810   25.8288  -77.7505 H         1 UNK         0.3020 
    107 H107      -75.9025   27.9480  -75.5294 H         1 UNK         0.1245 
    108 H108      -78.5162   28.4034  -74.9876 H         1 UNK         0.0781 
    109 H109      -78.6259   28.5988  -76.7119 H         1 UNK         0.0781 
    110 H110      -79.3477   30.8426  -74.5926 H         1 UNK         0.0836 
    111 H111      -78.1445   32.0725  -74.3149 H         1 UNK         0.0836 
    112 H112      -78.0126   26.2776  -74.8802 H         1 UNK         0.3022 
    113 H113      -76.1328   23.2295  -74.5938 H         1 UNK         0.0747 
    114 H114      -77.0795   23.5669  -72.2899 H         1 UNK         0.0793 
    115 H115      -75.6696   24.5726  -72.5849 H         1 UNK         0.0793 
    116 H116      -77.2733   25.2852  -72.6310 H         1 UNK         0.0793 
    117 H117      -78.8823   24.3576  -74.3672 H         1 UNK         0.3047 
    118 H118      -80.0486   22.4352  -77.1042 H         1 UNK         0.0822 
    119 H119      -80.2169   20.7506  -75.2569 H         1 UNK         0.0807 
    120 H120      -81.7443   21.5823  -75.5024 H         1 UNK         0.0807 
    121 H121      -80.7151   22.0139  -74.1383 H         1 UNK         0.0807 
    122 H122      -81.4238   24.1116  -75.2575 H         1 UNK         0.2946 
    123 H123      -80.4926   27.2594  -76.5475 H         1 UNK         0.1144 
    124 H124      -82.8806   27.5497  -77.1291 H         1 UNK         0.0793 
    125 H125      -83.1316   25.8033  -77.1021 H         1 UNK         0.0793 
    126 H126      -82.0980   26.5309  -78.3245 H         1 UNK         0.0793 
    127 H127      -82.5922   26.6956  -74.8059 H         1 UNK         0.2896 
@<TRIPOS>BOND
     1    1    2 1    
     2    1   67 1    
     3    1   68 1    
     4    1   69 1    
     5    2    3 2    
     6    2    4 am   BACKBONE|DICT|INTERRES
     7    4    5 1    
     8    4   70 1    
     9    5    6 1    
    10    5   65 1    
    11    5   71 1    
    12    6    7 1    
    13    6   72 1    
    14    6   73 1    
    15    7    8 1    
    16    8    9 1    
    17    8   74 1    
    18    8   75 1    
    19    9   10 ar   
    20    9   14 ar   
    21   10   11 ar   
    22   10   76 1    
    23   11   12 ar   
    24   11   48 1    
    25   12   13 ar   
    26   12   77 1    
    27   13   14 ar   
    28   13   15 1    
    29   14   78 1    
    30   15   16 1    
    31   15   79 1    
    32   15   80 1    
    33   16   17 1    
    34   17   18 1    
    35   17   81 1    
    36   17   82 1    
    37   18   19 1    
    38   18   22 1    
    39   18   83 1    
    40   19   20 am   BACKBONE|DICT|INTERRES
    41   19   21 2    
    42   20   84 1    
    43   20   85 1    
    44   22   23 am   BACKBONE|DICT|INTERRES
    45   22   86 1    
    46   23   24 2    
    47   23   25 1    
    48   25   26 1    
    49   25   27 1    
    50   25   87 1    
    51   26   88 1    
    52   26   89 1    
    53   26   90 1    
    54   27   28 am   BACKBONE|DICT|INTERRES
    55   27   91 1    
    56   28   29 2    
    57   28   30 1    
    58   30   31 1    
    59   30   32 1    
    60   30   92 1    
    61   31   93 1    
    62   31   94 1    
    63   31   95 1    
    64   32   33 am   BACKBONE|DICT|INTERRES
    65   32   96 1    
    66   33   34 2    
    67   33   35 1    
    68   35   36 1    
    69   35   37 1    
    70   35   97 1    
    71   36   98 1    
    72   36   99 1    
    73   36  100 1    
    74   37   38 am   BACKBONE|DICT|INTERRES
    75   37  101 1    
    76   38   39 2    
    77   38   40 1    
    78   40   41 1    
    79   40   42 1    
    80   40  102 1    
    81   41  103 1    
    82   41  104 1    
    83   41  105 1    
    84   42   43 am   BACKBONE|DICT|INTERRES
    85   42  106 1    
    86   43   44 2    
    87   43   45 1    
    88   45   46 1    
    89   45   49 1    
    90   45  107 1    
    91   46   47 1    
    92   46  108 1    
    93   46  109 1    
    94   47   48 1    
    95   48  110 1    
    96   48  111 1    
    97   49   50 am   BACKBONE|DICT|INTERRES
    98   49  112 1    
    99   50   51 2    
   100   50   52 1    
   101   52   53 1    
   102   52   54 1    
   103   52  113 1    
   104   53  114 1    
   105   53  115 1    
   106   53  116 1    
   107   54   55 am   BACKBONE|DICT|INTERRES
   108   54  117 1    
   109   55   56 2    
   110   55   57 1    
   111   57   58 1    
   112   57   59 1    
   113   57  118 1    
   114   58  119 1    
   115   58  120 1    
   116   58  121 1    
   117   59   60 am   BACKBONE|DICT|INTERRES
   118   59  122 1    
   119   60   61 2    
   120   60   62 1    
   121   62   63 1    
   122   62   64 1    
   123   62  123 1    
   124   63  124 1    
   125   63  125 1    
   126   63  126 1    
   127   64   65 am   BACKBONE|DICT|INTERRES
   128   64  127 1    
   129   65   66 2    
@<TRIPOS>SUBSTRUCTURE
     1 UNK         1 GROUP             0       ****    0 ROOT    
