@<TRIPOS>MOLECULE
3R135
127   129    1
SMALL
USER_CHARGES


@<TRIPOS>ATOM
      1 CA        -85.2770   29.5755  -74.9295 C.3       0 UNK        -0.1998 
      2 C         -83.8105   29.3178  -75.2408 C.2       0 UNK         0.4909 
      3 O         -83.3457   29.6606  -76.3282 O.2       0 UNK        -0.5240 
      4 N         -83.0788   28.7129  -74.2954 N.am      1 UNK        -0.4739 
      5 CA        -81.6463   28.3965  -74.4164 C.3       1 UNK         0.0864 
      6 C6        -80.9732   28.2207  -73.0306 C.3       11 UNK        -0.0881 
      7 S7        -81.1354   29.7304  -72.0168 S.3       11 UNK        -0.2682 
      8 C8        -80.5323   29.1681  -70.3929 C.3       11 UNK         0.0289 
      9 C9        -79.0249   28.9516  -70.3736 C.ar      11 UNK        -0.0687 
     10 C10       -78.4977   27.6833  -70.1054 C.ar      11 UNK        -0.0823 
     11 C11       -77.1139   27.4849  -70.0770 C.ar      11 UNK        -0.0830 
     12 C12       -76.2592   28.5674  -70.2972 C.ar      11 UNK        -0.1021 
     13 C13       -76.7714   29.8299  -70.5962 C.ar      11 UNK        -0.0753 
     14 C14       -78.1557   30.0221  -70.6178 C.ar      11 UNK        -0.0933 
     15 C15       -75.8156   30.9649  -70.9236 C.3       11 UNK         0.0166 
     16 S16       -75.2773   30.8710  -72.6648 S.3       11 UNK        -0.2615 
     17 C17       -73.4987   31.2800  -72.5330 C.3       11 UNK        -0.0865 
     18 CA        -72.5475   30.0806  -72.8041 C.3       10 UNK         0.0862 
     19 C         -72.6702   28.9373  -71.7586 C.2       10 UNK         0.5551 
     20 N         -72.8966   27.6901  -72.1545 N.am      10 UNK        -0.7319 
     21 O         -72.5272   29.1829  -70.5636 O.2       10 UNK        -0.5018 
     22 N         -72.5917   29.6255  -74.2030 N.am      10 UNK        -0.4509 
     23 C         -71.8544   30.1403  -75.1931 C.2       10 UNK         0.4899 
     24 O         -71.0988   31.1048  -75.0567 O.2       10 UNK        -0.4839 
     25 CA        -71.9800   29.4447  -76.5609 C.3       9 UNK         0.0222 
     26 CB        -71.0450   30.0366  -77.6366 C.3       9 UNK        -0.1966 
     27 N         -71.8111   27.9910  -76.4645 N.am      9 UNK        -0.4218 
     28 C         -70.7396   27.2985  -76.0469 C.2       9 UNK         0.5020 
     29 O         -69.6795   27.8132  -75.6891 O.2       9 UNK        -0.5274 
     30 CA        -70.8674   25.7603  -76.0164 C.3       8 UNK         0.0270 
     31 CB        -71.0482   25.2624  -74.5730 C.3       8 UNK        -0.1976 
     32 N         -71.9692   25.2468  -76.8364 N.am      8 UNK        -0.4313 
     33 C         -71.9958   25.2476  -78.1770 C.2       8 UNK         0.5041 
     34 O         -71.0398   25.5680  -78.8837 O.2       8 UNK        -0.5577 
     35 CA        -73.3381   24.8859  -78.8350 C.3       7 UNK         0.0284 
     36 CB        -73.4988   23.3630  -78.9737 C.3       7 UNK        -0.1958 
     37 N         -74.4708   25.4482  -78.0917 N.am      7 UNK        -0.4454 
     38 C         -74.7766   26.7538  -78.0590 C.2       7 UNK         0.5089 
     39 O         -74.1884   27.6098  -78.7181 O.2       7 UNK        -0.5125 
     40 CA        -75.8958   27.1906  -77.1020 C.3       6 UNK         0.0408 
     41 CB        -77.2542   27.1684  -77.8181 C.3       6 UNK        -0.1791 
     42 N         -75.9617   26.3629  -75.8967 N.am      6 UNK        -0.4762 
     43 C         -75.1010   26.4422  -74.8686 C.2       6 UNK         0.5007 
     44 O         -74.1596   27.2357  -74.8160 O.2       6 UNK        -0.5032 
     45 CA        -75.3193   25.4569  -73.7005 C.3       5 UNK         0.0783 
     46 C46       -76.3556   26.0711  -72.7337 C.3       11 UNK        -0.0857 
     47 S47       -76.7922   25.0058  -71.3122 S.3       11 UNK        -0.2512 
     48 C48       -76.5263   26.0952  -69.8705 C.3       11 UNK         0.0225 
     49 N         -75.7231   24.1244  -74.1480 N.am      5 UNK        -0.4615 
     50 C         -75.1150   23.3657  -75.0680 C.2       4 UNK         0.5053 
     51 O         -74.0289   23.6479  -75.5737 O.2       4 UNK        -0.5105 
     52 CA        -75.8827   22.1216  -75.5597 C.3       4 UNK         0.0263 
     53 CB        -75.2640   20.8454  -74.9690 C.3       4 UNK        -0.1981 
     54 N         -77.3255   22.1448  -75.2669 N.am      4 UNK        -0.4224 
     55 C         -78.1873   23.0924  -75.6677 C.2       3 UNK         0.4895 
     56 O         -77.8696   24.0502  -76.3801 O.2       3 UNK        -0.5091 
     57 CA        -79.6129   22.9930  -75.1107 C.3       3 UNK         0.0250 
     58 CB        -79.6276   23.1833  -73.5797 C.3       3 UNK        -0.1996 
     59 N         -80.4323   24.0265  -75.7333 N.am      3 UNK        -0.4254 
     60 C         -81.7612   24.0146  -75.8556 C.2       2 UNK         0.5004 
     61 O         -82.4816   23.1088  -75.4306 O.2       2 UNK        -0.5226 
     62 CA        -82.3846   25.2412  -76.5447 C.3       2 UNK         0.0269 
     63 CB        -83.8124   24.9672  -77.0535 C.3       2 UNK        -0.1926 
     64 N         -82.4205   26.3971  -75.6467 N.am      2 UNK        -0.4687 
     65 C         -81.3776   27.1805  -75.3323 C.2       1 UNK         0.5165 
     66 O         -80.2370   26.9847  -75.7531 O.2       1 UNK        -0.5079 
     67 H67       -85.4892   30.6430  -74.9825 H         1 UNK         0.0900 
     68 H68       -85.5507   29.2248  -73.9346 H         1 UNK         0.0900 
     69 H69       -85.9100   29.0656  -75.6553 H         1 UNK         0.0900 
     70 H70       -83.5049   28.4754  -73.4106 H         1 UNK         0.2959 
     71 H71       -81.1614   29.2442  -74.9066 H         1 UNK         0.1079 
     72 H72       -81.4093   27.3768  -72.4928 H         1 UNK         0.0837 
     73 H73       -79.9088   28.0018  -73.1419 H         1 UNK         0.0837 
     74 H74       -81.0658   28.2609  -70.1049 H         1 UNK         0.0685 
     75 H75       -80.7862   29.9219  -69.6465 H         1 UNK         0.0685 
     76 H76       -79.1598   26.8446  -69.9381 H         1 UNK         0.1434 
     77 H77       -75.1886   28.4172  -70.2892 H         1 UNK         0.1329 
     78 H78       -78.5599   30.9994  -70.8444 H         1 UNK         0.1335 
     79 H79       -74.9588   30.9082  -70.2507 H         1 UNK         0.0680 
     80 H80       -76.2861   31.9326  -70.7434 H         1 UNK         0.0680 
     81 H81       -73.2833   31.7154  -71.5561 H         1 UNK         0.1032 
     82 H82       -73.2870   32.0773  -73.2468 H         1 UNK         0.1032 
     83 H83       -71.5354   30.4516  -72.6307 H         1 UNK         0.0461 
     84 H84       -72.9350   26.9626  -71.4597 H         1 UNK         0.3453 
     85 H85       -73.0536   27.4777  -73.1287 H         1 UNK         0.3453 
     86 H86       -73.2057   28.8412  -74.4032 H         1 UNK         0.2984 
     87 H87       -73.0062   29.6087  -76.8930 H         1 UNK         0.0554 
     88 H88       -71.1868   29.5422  -78.5977 H         1 UNK         0.0847 
     89 H89       -69.9945   29.9394  -77.3607 H         1 UNK         0.0847 
     90 H90       -71.2447   31.0983  -77.7858 H         1 UNK         0.0847 
     91 H91       -72.6370   27.4530  -76.6862 H         1 UNK         0.3141 
     92 H92       -69.9340   25.3488  -76.4060 H         1 UNK         0.0743 
     93 H93       -71.9797   25.6211  -74.1364 H         1 UNK         0.0784 
     94 H94       -71.0573   24.1731  -74.5280 H         1 UNK         0.0784 
     95 H95       -70.2340   25.6070  -73.9339 H         1 UNK         0.0784 
     96 H96       -72.7732   24.8669  -76.3412 H         1 UNK         0.3213 
     97 H97       -73.3431   25.3176  -79.8385 H         1 UNK         0.0855 
     98 H98       -73.4703   22.8560  -78.0094 H         1 UNK         0.0814 
     99 H99       -72.6950   22.9446  -79.5809 H         1 UNK         0.0814 
    100 H100      -74.4391   23.1055  -79.4613 H         1 UNK         0.0814 
    101 H101      -74.9863   24.8195  -77.4922 H         1 UNK         0.3105 
    102 H102      -75.6909   28.2201  -76.7995 H         1 UNK         0.0547 
    103 H103      -77.2335   27.7883  -78.7154 H         1 UNK         0.0837 
    104 H104      -77.5368   26.1604  -78.1237 H         1 UNK         0.0837 
    105 H105      -78.0440   27.5577  -77.1763 H         1 UNK         0.0837 
    106 H106      -76.6915   25.6567  -75.8745 H         1 UNK         0.3020 
    107 H107      -74.3687   25.3442  -73.1765 H         1 UNK         0.1245 
    108 H108      -77.2871   26.3022  -73.2556 H         1 UNK         0.0781 
    109 H109      -75.9678   27.0259  -72.3834 H         1 UNK         0.0781 
    110 H110      -75.4555   26.1552  -69.6697 H         1 UNK         0.0836 
    111 H111      -76.9761   25.6364  -68.9890 H         1 UNK         0.0836 
    112 H112      -76.5951   23.7904  -73.7667 H         1 UNK         0.3022 
    113 H113      -75.7702   22.0874  -76.6452 H         1 UNK         0.0747 
    114 H114      -75.7289   19.9498  -75.3817 H         1 UNK         0.0793 
    115 H115      -74.1982   20.7873  -75.1955 H         1 UNK         0.0793 
    116 H116      -75.3685   20.8108  -73.8837 H         1 UNK         0.0793 
    117 H117      -77.6718   21.3974  -74.6818 H         1 UNK         0.3047 
    118 H118      -80.0114   22.0096  -75.3692 H         1 UNK         0.0822 
    119 H119      -79.2302   24.1580  -73.2926 H         1 UNK         0.0807 
    120 H120      -79.0328   22.4235  -73.0719 H         1 UNK         0.0807 
    121 H121      -80.6397   23.1102  -73.1812 H         1 UNK         0.0807 
    122 H122      -79.9082   24.8166  -76.0975 H         1 UNK         0.2946 
    123 H123      -81.7646   25.4860  -77.4107 H         1 UNK         0.1144 
    124 H124      -83.8276   24.1112  -77.7296 H         1 UNK         0.0793 
    125 H125      -84.2068   25.8209  -77.6050 H         1 UNK         0.0793 
    126 H126      -84.5009   24.7494  -76.2359 H         1 UNK         0.0793 
    127 H127      -83.3151   26.6235  -75.2376 H         1 UNK         0.2896 
@<TRIPOS>BOND
     1    1    2 1    
     2    1   67 1    
     3    1   68 1    
     4    1   69 1    
     5    2    3 2    
     6    2    4 am   BACKBONE|DICT|INTERRES
     7    4    5 1    
     8    4   70 1    
     9    5    6 1    
    10    5   65 1    
    11    5   71 1    
    12    6    7 1    
    13    6   72 1    
    14    6   73 1    
    15    7    8 1    
    16    8    9 1    
    17    8   74 1    
    18    8   75 1    
    19    9   10 ar   
    20    9   14 ar   
    21   10   11 ar   
    22   10   76 1    
    23   11   12 ar   
    24   11   48 1    
    25   12   13 ar   
    26   12   77 1    
    27   13   14 ar   
    28   13   15 1    
    29   14   78 1    
    30   15   16 1    
    31   15   79 1    
    32   15   80 1    
    33   16   17 1    
    34   17   18 1    
    35   17   81 1    
    36   17   82 1    
    37   18   19 1    
    38   18   22 1    
    39   18   83 1    
    40   19   20 am   BACKBONE|DICT|INTERRES
    41   19   21 2    
    42   20   84 1    
    43   20   85 1    
    44   22   23 am   BACKBONE|DICT|INTERRES
    45   22   86 1    
    46   23   24 2    
    47   23   25 1    
    48   25   26 1    
    49   25   27 1    
    50   25   87 1    
    51   26   88 1    
    52   26   89 1    
    53   26   90 1    
    54   27   28 am   BACKBONE|DICT|INTERRES
    55   27   91 1    
    56   28   29 2    
    57   28   30 1    
    58   30   31 1    
    59   30   32 1    
    60   30   92 1    
    61   31   93 1    
    62   31   94 1    
    63   31   95 1    
    64   32   33 am   BACKBONE|DICT|INTERRES
    65   32   96 1    
    66   33   34 2    
    67   33   35 1    
    68   35   36 1    
    69   35   37 1    
    70   35   97 1    
    71   36   98 1    
    72   36   99 1    
    73   36  100 1    
    74   37   38 am   BACKBONE|DICT|INTERRES
    75   37  101 1    
    76   38   39 2    
    77   38   40 1    
    78   40   41 1    
    79   40   42 1    
    80   40  102 1    
    81   41  103 1    
    82   41  104 1    
    83   41  105 1    
    84   42   43 am   BACKBONE|DICT|INTERRES
    85   42  106 1    
    86   43   44 2    
    87   43   45 1    
    88   45   46 1    
    89   45   49 1    
    90   45  107 1    
    91   46   47 1    
    92   46  108 1    
    93   46  109 1    
    94   47   48 1    
    95   48  110 1    
    96   48  111 1    
    97   49   50 am   BACKBONE|DICT|INTERRES
    98   49  112 1    
    99   50   51 2    
   100   50   52 1    
   101   52   53 1    
   102   52   54 1    
   103   52  113 1    
   104   53  114 1    
   105   53  115 1    
   106   53  116 1    
   107   54   55 am   BACKBONE|DICT|INTERRES
   108   54  117 1    
   109   55   56 2    
   110   55   57 1    
   111   57   58 1    
   112   57   59 1    
   113   57  118 1    
   114   58  119 1    
   115   58  120 1    
   116   58  121 1    
   117   59   60 am   BACKBONE|DICT|INTERRES
   118   59  122 1    
   119   60   61 2    
   120   60   62 1    
   121   62   63 1    
   122   62   64 1    
   123   62  123 1    
   124   63  124 1    
   125   63  125 1    
   126   63  126 1    
   127   64   65 am   BACKBONE|DICT|INTERRES
   128   64  127 1    
   129   65   66 2    
@<TRIPOS>SUBSTRUCTURE
     1 UNK         1 GROUP             0       ****    0 ROOT    
