@<TRIPOS>MOLECULE
3R135
127   129    1
SMALL
USER_CHARGES


@<TRIPOS>ATOM
      1 CA        -83.8903   27.5483  -70.9999 C.3       0 UNK        -0.1998 
      2 C         -83.4157   27.9320  -72.3934 C.2       0 UNK         0.4909 
      3 O         -84.2232   27.9903  -73.3211 O.2       0 UNK        -0.5240 
      4 N         -82.1114   28.1975  -72.5438 N.am      1 UNK        -0.4739 
      5 CA        -81.4683   28.5613  -73.8139 C.3       1 UNK         0.0864 
      6 C6        -80.0545   29.1550  -73.5963 C.3       11 UNK        -0.0881 
      7 S7        -80.0936   30.7625  -72.7275 S.3       11 UNK        -0.2682 
      8 C8        -79.8858   30.3113  -70.9717 C.3       11 UNK         0.0289 
      9 C9        -78.5381   29.6636  -70.6925 C.ar      11 UNK        -0.0687 
     10 C10       -78.4452   28.2818  -70.4989 C.ar      11 UNK        -0.0823 
     11 C11       -77.2035   27.6768  -70.2818 C.ar      11 UNK        -0.0830 
     12 C12       -76.0574   28.4739  -70.2066 C.ar      11 UNK        -0.1021 
     13 C13       -76.1401   29.8589  -70.3782 C.ar      11 UNK        -0.0753 
     14 C14       -77.3829   30.4480  -70.6269 C.ar      11 UNK        -0.0933 
     15 C15       -74.8875   30.7161  -70.2724 C.3       11 UNK         0.0166 
     16 S16       -73.6950   30.3694  -71.6031 S.3       11 UNK        -0.2615 
     17 C17       -74.4639   31.1781  -73.0536 C.3       11 UNK        -0.0865 
     18 CA        -74.7065   30.2185  -74.2590 C.3       10 UNK         0.0862 
     19 C         -75.3638   30.9659  -75.4593 C.2       10 UNK         0.5551 
     20 N         -74.9130   30.7814  -76.6936 N.am      10 UNK        -0.7319 
     21 O         -76.3222   31.7104  -75.2700 O.2       10 UNK        -0.5018 
     22 N         -73.5276   29.3903  -74.5832 N.am      10 UNK        -0.4509 
     23 C         -72.3184   29.8382  -74.9459 C.2       10 UNK         0.4899 
     24 O         -72.0876   31.0112  -75.2406 O.2       10 UNK        -0.4839 
     25 CA        -71.1413   28.8492  -74.9236 C.3       9 UNK         0.0222 
     26 CB        -70.3360   29.0811  -73.6241 C.3       9 UNK        -0.1966 
     27 N         -71.5275   27.4353  -75.0520 N.am      9 UNK        -0.4218 
     28 C         -70.6541   26.4296  -75.2173 C.2       9 UNK         0.5020 
     29 O         -69.4364   26.5847  -75.3267 O.2       9 UNK        -0.5274 
     30 CA        -71.2221   25.0021  -75.2675 C.3       8 UNK         0.0270 
     31 CB        -71.7448   24.5588  -73.8903 C.3       8 UNK        -0.1976 
     32 N         -72.2626   24.8453  -76.2834 N.am      8 UNK        -0.4313 
     33 C         -72.0348   24.8682  -77.6051 C.2       8 UNK         0.5041 
     34 O         -70.9155   24.9792  -78.1076 O.2       8 UNK        -0.5577 
     35 CA        -73.2550   24.7398  -78.5318 C.3       7 UNK         0.0284 
     36 CB        -73.5757   23.2596  -78.7940 C.3       7 UNK        -0.1958 
     37 N         -74.4444   25.4150  -78.0114 N.am      7 UNK        -0.4454 
     38 C         -74.5626   26.7415  -77.8579 C.2       7 UNK         0.5089 
     39 O         -73.7038   27.5569  -78.1951 O.2       7 UNK        -0.5125 
     40 CA        -75.8416   27.2409  -77.1681 C.3       6 UNK         0.0408 
     41 CB        -77.0134   27.3080  -78.1582 C.3       6 UNK        -0.1791 
     42 N         -76.2200   26.4394  -76.0044 N.am      6 UNK        -0.4762 
     43 C         -75.4610   26.2548  -74.9139 C.2       6 UNK         0.5007 
     44 O         -74.3344   26.7303  -74.7623 O.2       6 UNK        -0.5032 
     45 CA        -76.0618   25.3664  -73.8139 C.3       5 UNK         0.0783 
     46 C46       -77.1300   26.1690  -73.0371 C.3       11 UNK        -0.0857 
     47 S47       -77.8230   25.2787  -71.6025 S.3       11 UNK        -0.2512 
     48 C48       -77.0837   26.1592  -70.1793 C.3       11 UNK         0.0225 
     49 N         -76.5785   24.1193  -74.3837 N.am      5 UNK        -0.4615 
     50 C         -75.8193   23.1798  -74.9658 C.2       4 UNK         0.5053 
     51 O         -74.5915   23.2339  -75.0309 O.2       4 UNK        -0.5105 
     52 CA        -76.5579   22.0049  -75.6278 C.3       4 UNK         0.0263 
     53 CB        -76.9504   20.9516  -74.5796 C.3       4 UNK        -0.1981 
     54 N         -77.7483   22.4314  -76.3677 N.am      4 UNK        -0.4224 
     55 C         -77.7283   23.2254  -77.4488 C.2       3 UNK         0.4895 
     56 O         -76.6980   23.6426  -77.9753 O.2       3 UNK        -0.5091 
     57 CA        -79.0898   23.6711  -78.0098 C.3       3 UNK         0.0250 
     58 CB        -79.6264   22.6351  -79.0101 C.3       3 UNK        -0.1996 
     59 N         -80.0975   23.9265  -76.9742 N.am      3 UNK        -0.4254 
     60 C         -79.9701   24.8294  -75.9914 C.2       2 UNK         0.5004 
     61 O         -78.9709   25.5356  -75.8369 O.2       2 UNK        -0.5226 
     62 CA        -81.1264   24.8939  -74.9789 C.3       2 UNK         0.0269 
     63 CB        -80.9980   23.7507  -73.9576 C.3       2 UNK        -0.1926 
     64 N         -81.1861   26.1615  -74.2476 N.am      2 UNK        -0.4687 
     65 C         -81.4175   27.3667  -74.7897 C.2       1 UNK         0.5165 
     66 O         -81.6222   27.5538  -75.9903 O.2       1 UNK        -0.5079 
     67 H67       -84.3330   26.5527  -71.0158 H         1 UNK         0.0900 
     68 H68       -84.6470   28.2523  -70.6546 H         1 UNK         0.0900 
     69 H69       -83.0753   27.5454  -70.2763 H         1 UNK         0.0900 
     70 H70       -81.5022   28.1444  -71.7424 H         1 UNK         0.2959 
     71 H71       -82.0856   29.3263  -74.2912 H         1 UNK         0.1079 
     72 H72       -79.5699   29.3333  -74.5587 H         1 UNK         0.0837 
     73 H73       -79.4084   28.4517  -73.0712 H         1 UNK         0.0837 
     74 H74       -79.9775   31.2164  -70.3696 H         1 UNK         0.0685 
     75 H75       -80.7024   29.6620  -70.6562 H         1 UNK         0.0685 
     76 H76       -79.3323   27.6667  -70.5540 H         1 UNK         0.1434 
     77 H77       -75.0917   28.0187  -70.0330 H         1 UNK         0.1329 
     78 H78       -77.4555   31.5176  -70.7703 H         1 UNK         0.1335 
     79 H79       -74.4064   30.5154  -69.3141 H         1 UNK         0.0680 
     80 H80       -75.1332   31.7793  -70.2721 H         1 UNK         0.0680 
     81 H81       -73.8184   32.0049  -73.3545 H         1 UNK         0.1032 
     82 H82       -75.4063   31.6354  -72.7472 H         1 UNK         0.1032 
     83 H83       -75.4618   29.4988  -73.9402 H         1 UNK         0.0461 
     84 H84       -74.1162   30.1866  -76.8583 H         1 UNK         0.3453 
     85 H85       -75.3505   31.2690  -77.4587 H         1 UNK         0.3453 
     86 H86       -73.6689   28.3985  -74.4237 H         1 UNK         0.2984 
     87 H87       -70.5073   29.0982  -75.7770 H         1 UNK         0.0554 
     88 H88       -69.3834   28.5527  -73.6282 H         1 UNK         0.0847 
     89 H89       -70.8959   28.7570  -72.7460 H         1 UNK         0.0847 
     90 H90       -70.1037   30.1383  -73.4865 H         1 UNK         0.0847 
     91 H91       -72.5180   27.2087  -75.0186 H         1 UNK         0.3141 
     92 H92       -70.4004   24.3331  -75.5327 H         1 UNK         0.0743 
     93 H93       -72.0505   23.5125  -73.9030 H         1 UNK         0.0784 
     94 H94       -70.9697   24.6593  -73.1295 H         1 UNK         0.0784 
     95 H95       -72.5992   25.1504  -73.5630 H         1 UNK         0.0784 
     96 H96       -73.2092   24.7007  -75.9517 H         1 UNK         0.3213 
     97 H97       -72.9967   25.2075  -79.4844 H         1 UNK         0.0855 
     98 H98       -73.8802   22.7457  -77.8811 H         1 UNK         0.0814 
     99 H99       -72.7059   22.7347  -79.1914 H         1 UNK         0.0814 
    100 H100      -74.3799   23.1514  -79.5220 H         1 UNK         0.0814 
    101 H101      -75.2360   24.8226  -77.7685 H         1 UNK         0.3105 
    102 H102      -75.6507   28.2490  -76.8052 H         1 UNK         0.0547 
    103 H103      -77.2479   26.3276  -78.5721 H         1 UNK         0.0837 
    104 H104      -77.9148   27.6951  -77.6823 H         1 UNK         0.0837 
    105 H105      -76.7780   27.9671  -78.9946 H         1 UNK         0.0837 
    106 H106      -77.1499   26.0235  -76.0189 H         1 UNK         0.3020 
    107 H107      -75.2540   25.1105  -73.1245 H         1 UNK         0.1245 
    108 H108      -76.7072   27.1219  -72.7190 H         1 UNK         0.0781 
    109 H109      -77.9659   26.4337  -73.6846 H         1 UNK         0.0781 
    110 H110      -77.5710   25.8242  -69.2628 H         1 UNK         0.0836 
    111 H111      -76.0375   25.8601  -70.0977 H         1 UNK         0.0836 
    112 H112      -77.5827   24.0265  -74.4107 H         1 UNK         0.3022 
    113 H113      -75.8707   21.5413  -76.3390 H         1 UNK         0.0747 
    114 H114      -77.4007   20.0756  -75.0468 H         1 UNK         0.0793 
    115 H115      -76.0746   20.6077  -74.0273 H         1 UNK         0.0793 
    116 H116      -77.6599   21.3470  -73.8514 H         1 UNK         0.0793 
    117 H117      -78.6433   22.1327  -76.0097 H         1 UNK         0.3047 
    118 H118      -78.9305   24.6085  -78.5459 H         1 UNK         0.0822 
    119 H119      -80.5401   22.9840  -79.4918 H         1 UNK         0.0807 
    120 H120      -79.8426   21.6802  -78.5294 H         1 UNK         0.0807 
    121 H121      -78.8992   22.4445  -79.8009 H         1 UNK         0.0807 
    122 H122      -80.9437   23.3771  -77.0250 H         1 UNK         0.2946 
    123 H123      -82.0655   24.7828  -75.5257 H         1 UNK         0.1144 
    124 H124      -81.8326   23.7503  -73.2561 H         1 UNK         0.0793 
    125 H125      -80.0760   23.8279  -73.3795 H         1 UNK         0.0793 
    126 H126      -80.9946   22.7768  -74.4487 H         1 UNK         0.0793 
    127 H127      -81.0267   26.1136  -73.2527 H         1 UNK         0.2896 
@<TRIPOS>BOND
     1    1    2 1    
     2    1   67 1    
     3    1   68 1    
     4    1   69 1    
     5    2    3 2    
     6    2    4 am   BACKBONE|DICT|INTERRES
     7    4    5 1    
     8    4   70 1    
     9    5    6 1    
    10    5   65 1    
    11    5   71 1    
    12    6    7 1    
    13    6   72 1    
    14    6   73 1    
    15    7    8 1    
    16    8    9 1    
    17    8   74 1    
    18    8   75 1    
    19    9   10 ar   
    20    9   14 ar   
    21   10   11 ar   
    22   10   76 1    
    23   11   12 ar   
    24   11   48 1    
    25   12   13 ar   
    26   12   77 1    
    27   13   14 ar   
    28   13   15 1    
    29   14   78 1    
    30   15   16 1    
    31   15   79 1    
    32   15   80 1    
    33   16   17 1    
    34   17   18 1    
    35   17   81 1    
    36   17   82 1    
    37   18   19 1    
    38   18   22 1    
    39   18   83 1    
    40   19   20 am   BACKBONE|DICT|INTERRES
    41   19   21 2    
    42   20   84 1    
    43   20   85 1    
    44   22   23 am   BACKBONE|DICT|INTERRES
    45   22   86 1    
    46   23   24 2    
    47   23   25 1    
    48   25   26 1    
    49   25   27 1    
    50   25   87 1    
    51   26   88 1    
    52   26   89 1    
    53   26   90 1    
    54   27   28 am   BACKBONE|DICT|INTERRES
    55   27   91 1    
    56   28   29 2    
    57   28   30 1    
    58   30   31 1    
    59   30   32 1    
    60   30   92 1    
    61   31   93 1    
    62   31   94 1    
    63   31   95 1    
    64   32   33 am   BACKBONE|DICT|INTERRES
    65   32   96 1    
    66   33   34 2    
    67   33   35 1    
    68   35   36 1    
    69   35   37 1    
    70   35   97 1    
    71   36   98 1    
    72   36   99 1    
    73   36  100 1    
    74   37   38 am   BACKBONE|DICT|INTERRES
    75   37  101 1    
    76   38   39 2    
    77   38   40 1    
    78   40   41 1    
    79   40   42 1    
    80   40  102 1    
    81   41  103 1    
    82   41  104 1    
    83   41  105 1    
    84   42   43 am   BACKBONE|DICT|INTERRES
    85   42  106 1    
    86   43   44 2    
    87   43   45 1    
    88   45   46 1    
    89   45   49 1    
    90   45  107 1    
    91   46   47 1    
    92   46  108 1    
    93   46  109 1    
    94   47   48 1    
    95   48  110 1    
    96   48  111 1    
    97   49   50 am   BACKBONE|DICT|INTERRES
    98   49  112 1    
    99   50   51 2    
   100   50   52 1    
   101   52   53 1    
   102   52   54 1    
   103   52  113 1    
   104   53  114 1    
   105   53  115 1    
   106   53  116 1    
   107   54   55 am   BACKBONE|DICT|INTERRES
   108   54  117 1    
   109   55   56 2    
   110   55   57 1    
   111   57   58 1    
   112   57   59 1    
   113   57  118 1    
   114   58  119 1    
   115   58  120 1    
   116   58  121 1    
   117   59   60 am   BACKBONE|DICT|INTERRES
   118   59  122 1    
   119   60   61 2    
   120   60   62 1    
   121   62   63 1    
   122   62   64 1    
   123   62  123 1    
   124   63  124 1    
   125   63  125 1    
   126   63  126 1    
   127   64   65 am   BACKBONE|DICT|INTERRES
   128   64  127 1    
   129   65   66 2    
@<TRIPOS>SUBSTRUCTURE
     1 UNK         1 GROUP             0       ****    0 ROOT    
