@<TRIPOS>MOLECULE
3R135
127   129    1
SMALL
USER_CHARGES


@<TRIPOS>ATOM
      1 CA        -77.3399   25.7333  -72.7883 C.3       0 UNK        -0.1998 
      2 C         -78.8537   25.6682  -72.6905 C.2       0 UNK         0.4909 
      3 O         -79.5339   25.7783  -73.7110 O.2       0 UNK        -0.5240 
      4 N         -79.3672   25.4706  -71.4668 N.am      1 UNK        -0.4739 
      5 CA        -80.7826   25.5322  -71.0645 C.3       1 UNK         0.0864 
      6 C6        -81.2872   26.9925  -70.9138 C.3       11 UNK        -0.0881 
      7 S7        -80.4150   27.8550  -69.5611 S.3       11 UNK        -0.2682 
      8 C8        -80.0484   29.4777  -70.3001 C.3       11 UNK         0.0289 
      9 C9        -78.9519   29.4159  -71.3552 C.ar      11 UNK        -0.0687 
     10 C10       -79.2306   29.7621  -72.6804 C.ar      11 UNK        -0.0823 
     11 C11       -78.2165   29.7661  -73.6429 C.ar      11 UNK        -0.0830 
     12 C12       -76.9184   29.3982  -73.2782 C.ar      11 UNK        -0.1021 
     13 C13       -76.6276   29.0498  -71.9551 C.ar      11 UNK        -0.0753 
     14 C14       -77.6469   29.0625  -70.9984 C.ar      11 UNK        -0.0933 
     15 C15       -75.2134   28.6543  -71.5588 C.3       11 UNK         0.0166 
     16 S16       -74.3093   30.0139  -70.7488 S.3       11 UNK        -0.2615 
     17 C17       -74.2523   31.2905  -72.0562 C.3       11 UNK        -0.0865 
     18 CA        -73.2924   30.9396  -73.2232 C.3       10 UNK         0.0862 
     19 C         -73.4004   31.9926  -74.3642 C.2       10 UNK         0.5551 
     20 N         -72.3347   32.7025  -74.7136 N.am      10 UNK        -0.7319 
     21 O         -74.4655   32.1491  -74.9544 O.2       10 UNK        -0.5018 
     22 N         -71.9220   30.6877  -72.7400 N.am      10 UNK        -0.4509 
     23 C         -70.9563   29.9623  -73.3214 C.2       10 UNK         0.4899 
     24 O         -69.8554   29.8271  -72.7888 O.2       10 UNK        -0.4839 
     25 CA        -71.2146   29.2358  -74.6547 C.3       9 UNK         0.0222 
     26 CB        -70.0170   29.3730  -75.6124 C.3       9 UNK        -0.1966 
     27 N         -71.4282   27.8208  -74.3633 N.am      9 UNK        -0.4218 
     28 C         -72.5985   27.1867  -74.4748 C.2       9 UNK         0.5020 
     29 O         -73.6394   27.7203  -74.8691 O.2       9 UNK        -0.5274 
     30 CA        -72.6043   25.6903  -74.1358 C.3       8 UNK         0.0270 
     31 CB        -73.6859   25.3613  -73.0961 C.3       8 UNK        -0.1976 
     32 N         -72.8942   24.9872  -75.3792 N.am      8 UNK        -0.4313 
     33 C         -71.9611   24.4971  -76.2055 C.2       8 UNK         0.5041 
     34 O         -70.7929   24.2817  -75.8795 O.2       8 UNK        -0.5577 
     35 CA        -72.3836   24.3270  -77.6747 C.3       7 UNK         0.0284 
     36 CB        -73.3249   23.1268  -77.8699 C.3       7 UNK        -0.1958 
     37 N         -73.0161   25.5621  -78.1488 N.am      7 UNK        -0.4454 
     38 C         -72.3524   26.7093  -78.3591 C.2       7 UNK         0.5089 
     39 O         -71.1251   26.7790  -78.4272 O.2       7 UNK        -0.5125 
     40 CA        -73.1658   28.0143  -78.4405 C.3       6 UNK         0.0408 
     41 CB        -73.3861   28.4620  -79.8990 C.3       6 UNK        -0.1791 
     42 N         -74.4112   27.9915  -77.6583 N.am      6 UNK        -0.4762 
     43 C         -75.5577   27.3593  -77.9355 C.2       6 UNK         0.5007 
     44 O         -75.7457   26.6993  -78.9599 O.2       6 UNK        -0.5032 
     45 CA        -76.6796   27.4664  -76.8821 C.3       5 UNK         0.0783 
     46 C46       -77.6384   28.6228  -77.2543 C.3       11 UNK        -0.0857 
     47 S47       -79.0408   28.7998  -76.0984 S.3       11 UNK        -0.2512 
     48 C48       -78.5237   30.2055  -75.0652 C.3       11 UNK         0.0225 
     49 N         -77.3916   26.1936  -76.7535 N.am      5 UNK        -0.4615 
     50 C         -76.8508   25.0354  -76.3597 C.2       4 UNK         0.5053 
     51 O         -75.6813   24.9261  -75.9879 O.2       4 UNK        -0.5105 
     52 CA        -77.7724   23.8056  -76.3954 C.3       4 UNK         0.0263 
     53 CB        -77.3257   22.6850  -75.4380 C.3       4 UNK        -0.1981 
     54 N         -79.1554   24.1810  -76.0915 N.am      4 UNK        -0.4224 
     55 C         -80.1999   24.0314  -76.9151 C.2       3 UNK         0.4895 
     56 O         -80.1158   23.5764  -78.0576 O.2       3 UNK        -0.5091 
     57 CA        -81.5680   24.4617  -76.3498 C.3       3 UNK         0.0250 
     58 CB        -82.7498   24.0971  -77.2737 C.3       3 UNK        -0.1996 
     59 N         -81.7945   23.9572  -74.9895 N.am      3 UNK        -0.4254 
     60 C         -81.8044   22.6807  -74.5746 C.2       2 UNK         0.5004 
     61 O         -81.6750   21.7158  -75.3301 O.2       2 UNK        -0.5226 
     62 CA        -81.9742   22.4398  -73.0577 C.3       2 UNK         0.0269 
     63 CB        -81.5195   21.0301  -72.6329 C.3       2 UNK        -0.1926 
     64 N         -81.2650   23.4268  -72.2343 N.am      2 UNK        -0.4687 
     65 C         -81.7134   24.6526  -71.9305 C.2       1 UNK         0.5165 
     66 O         -82.7924   25.0896  -72.3351 O.2       1 UNK        -0.5079 
     67 H67       -76.8917   26.0370  -71.8430 H         1 UNK         0.0900 
     68 H68       -77.0457   26.4584  -73.5468 H         1 UNK         0.0900 
     69 H69       -76.9304   24.7639  -73.0631 H         1 UNK         0.0900 
     70 H70       -78.7250   25.3622  -70.6944 H         1 UNK         0.2959 
     71 H71       -80.8303   25.0742  -70.0749 H         1 UNK         0.1079 
     72 H72       -81.1686   27.5350  -71.8534 H         1 UNK         0.0837 
     73 H73       -82.3518   27.0203  -70.6739 H         1 UNK         0.0837 
     74 H74       -80.9676   29.8986  -70.7108 H         1 UNK         0.0685 
     75 H75       -79.7311   30.1565  -69.5074 H         1 UNK         0.0685 
     76 H76       -80.2348   30.0480  -72.9621 H         1 UNK         0.1434 
     77 H77       -76.1309   29.3978  -74.0195 H         1 UNK         0.1329 
     78 H78       -77.4238   28.8029  -69.9725 H         1 UNK         0.1335 
     79 H79       -75.2537   27.8074  -70.8725 H         1 UNK         0.0680 
     80 H80       -74.6545   28.3063  -72.4269 H         1 UNK         0.0680 
     81 H81       -73.9472   32.2301  -71.5920 H         1 UNK         0.1032 
     82 H82       -75.2665   31.4637  -72.4197 H         1 UNK         0.1032 
     83 H83       -73.6658   30.0130  -73.6540 H         1 UNK         0.0461 
     84 H84       -71.4623   32.5966  -74.2208 H         1 UNK         0.3453 
     85 H85       -72.4148   33.3771  -75.4582 H         1 UNK         0.3453 
     86 H86       -71.7063   31.1242  -71.8563 H         1 UNK         0.2984 
     87 H87       -72.0711   29.6591  -75.1768 H         1 UNK         0.0554 
     88 H88       -70.2104   28.8679  -76.5592 H         1 UNK         0.0847 
     89 H89       -69.1025   28.9509  -75.1936 H         1 UNK         0.0847 
     90 H90       -69.8193   30.4214  -75.8394 H         1 UNK         0.0847 
     91 H91       -70.6281   27.3172  -74.0053 H         1 UNK         0.3141 
     92 H92       -71.6335   25.3902  -73.7357 H         1 UNK         0.0743 
     93 H93       -73.4918   25.8739  -72.1533 H         1 UNK         0.0784 
     94 H94       -73.7243   24.2922  -72.8877 H         1 UNK         0.0784 
     95 H95       -74.6715   25.6697  -73.4412 H         1 UNK         0.0784 
     96 H96       -73.8467   25.0995  -75.7244 H         1 UNK         0.3213 
     97 H97       -71.4836   24.1492  -78.2676 H         1 UNK         0.0855 
     98 H98       -72.8443   22.2033  -77.5446 H         1 UNK         0.0814 
     99 H99       -73.5907   23.0004  -78.9194 H         1 UNK         0.0814 
    100 H100      -74.2489   23.2265  -77.3021 H         1 UNK         0.0814 
    101 H101      -74.0278   25.5994  -78.1471 H         1 UNK         0.3105 
    102 H102      -72.5535   28.7800  -77.9611 H         1 UNK         0.0547 
    103 H103      -73.9208   27.7139  -80.4844 H         1 UNK         0.0837 
    104 H104      -72.4306   28.6315  -80.3970 H         1 UNK         0.0837 
    105 H105      -73.9472   29.3949  -79.9490 H         1 UNK         0.0837 
    106 H106      -74.3140   28.3790  -76.7244 H         1 UNK         0.3020 
    107 H107      -76.2265   27.6801  -75.9113 H         1 UNK         0.1245 
    108 H108      -78.0614   28.4553  -78.2471 H         1 UNK         0.0781 
    109 H109      -77.0943   29.5662  -77.3243 H         1 UNK         0.0781 
    110 H110      -79.3278   30.9430  -75.0577 H         1 UNK         0.0836 
    111 H111      -77.6603   30.7177  -75.4915 H         1 UNK         0.0836 
    112 H112      -78.3601   26.2007  -77.0349 H         1 UNK         0.3022 
    113 H113      -77.6994   23.4152  -77.4123 H         1 UNK         0.0747 
    114 H114      -77.9470   21.7977  -75.5610 H         1 UNK         0.0793 
    115 H115      -76.2950   22.3848  -75.6310 H         1 UNK         0.0793 
    116 H116      -77.3909   22.9894  -74.3950 H         1 UNK         0.0793 
    117 H117      -79.3122   24.6431  -75.1961 H         1 UNK         0.3047 
    118 H118      -81.5341   25.5496  -76.2700 H         1 UNK         0.0822 
    119 H119      -83.6978   24.4391  -76.8584 H         1 UNK         0.0807 
    120 H120      -82.8225   23.0209  -77.4341 H         1 UNK         0.0807 
    121 H121      -82.6385   24.5645  -78.2528 H         1 UNK         0.0807 
    122 H122      -81.8966   24.6674  -74.2738 H         1 UNK         0.2946 
    123 H123      -83.0446   22.5171  -72.8523 H         1 UNK         0.1144 
    124 H124      -82.0851   20.2589  -73.1576 H         1 UNK         0.0793 
    125 H125      -81.6732   20.8674  -71.5660 H         1 UNK         0.0793 
    126 H126      -80.4633   20.8657  -72.8502 H         1 UNK         0.0793 
    127 H127      -80.3456   23.1648  -71.9079 H         1 UNK         0.2896 
@<TRIPOS>BOND
     1    1    2 1    
     2    1   67 1    
     3    1   68 1    
     4    1   69 1    
     5    2    3 2    
     6    2    4 am   BACKBONE|DICT|INTERRES
     7    4    5 1    
     8    4   70 1    
     9    5    6 1    
    10    5   65 1    
    11    5   71 1    
    12    6    7 1    
    13    6   72 1    
    14    6   73 1    
    15    7    8 1    
    16    8    9 1    
    17    8   74 1    
    18    8   75 1    
    19    9   10 ar   
    20    9   14 ar   
    21   10   11 ar   
    22   10   76 1    
    23   11   12 ar   
    24   11   48 1    
    25   12   13 ar   
    26   12   77 1    
    27   13   14 ar   
    28   13   15 1    
    29   14   78 1    
    30   15   16 1    
    31   15   79 1    
    32   15   80 1    
    33   16   17 1    
    34   17   18 1    
    35   17   81 1    
    36   17   82 1    
    37   18   19 1    
    38   18   22 1    
    39   18   83 1    
    40   19   20 am   BACKBONE|DICT|INTERRES
    41   19   21 2    
    42   20   84 1    
    43   20   85 1    
    44   22   23 am   BACKBONE|DICT|INTERRES
    45   22   86 1    
    46   23   24 2    
    47   23   25 1    
    48   25   26 1    
    49   25   27 1    
    50   25   87 1    
    51   26   88 1    
    52   26   89 1    
    53   26   90 1    
    54   27   28 am   BACKBONE|DICT|INTERRES
    55   27   91 1    
    56   28   29 2    
    57   28   30 1    
    58   30   31 1    
    59   30   32 1    
    60   30   92 1    
    61   31   93 1    
    62   31   94 1    
    63   31   95 1    
    64   32   33 am   BACKBONE|DICT|INTERRES
    65   32   96 1    
    66   33   34 2    
    67   33   35 1    
    68   35   36 1    
    69   35   37 1    
    70   35   97 1    
    71   36   98 1    
    72   36   99 1    
    73   36  100 1    
    74   37   38 am   BACKBONE|DICT|INTERRES
    75   37  101 1    
    76   38   39 2    
    77   38   40 1    
    78   40   41 1    
    79   40   42 1    
    80   40  102 1    
    81   41  103 1    
    82   41  104 1    
    83   41  105 1    
    84   42   43 am   BACKBONE|DICT|INTERRES
    85   42  106 1    
    86   43   44 2    
    87   43   45 1    
    88   45   46 1    
    89   45   49 1    
    90   45  107 1    
    91   46   47 1    
    92   46  108 1    
    93   46  109 1    
    94   47   48 1    
    95   48  110 1    
    96   48  111 1    
    97   49   50 am   BACKBONE|DICT|INTERRES
    98   49  112 1    
    99   50   51 2    
   100   50   52 1    
   101   52   53 1    
   102   52   54 1    
   103   52  113 1    
   104   53  114 1    
   105   53  115 1    
   106   53  116 1    
   107   54   55 am   BACKBONE|DICT|INTERRES
   108   54  117 1    
   109   55   56 2    
   110   55   57 1    
   111   57   58 1    
   112   57   59 1    
   113   57  118 1    
   114   58  119 1    
   115   58  120 1    
   116   58  121 1    
   117   59   60 am   BACKBONE|DICT|INTERRES
   118   59  122 1    
   119   60   61 2    
   120   60   62 1    
   121   62   63 1    
   122   62   64 1    
   123   62  123 1    
   124   63  124 1    
   125   63  125 1    
   126   63  126 1    
   127   64   65 am   BACKBONE|DICT|INTERRES
   128   64  127 1    
   129   65   66 2    
@<TRIPOS>SUBSTRUCTURE
     1 UNK         1 GROUP             0       ****    0 ROOT    
