@<TRIPOS>MOLECULE
3R135
127   129    1
SMALL
USER_CHARGES


@<TRIPOS>ATOM
      1 CA        -80.1903   24.8794  -69.6387 C.3       0 UNK        -0.1998 
      2 C         -81.1406   25.1561  -70.7941 C.2       0 UNK         0.4909 
      3 O         -82.1379   24.4499  -70.9477 O.2       0 UNK        -0.5240 
      4 N         -80.8449   26.1843  -71.5993 N.am      1 UNK        -0.4739 
      5 CA        -81.6157   26.5603  -72.7895 C.3       1 UNK         0.0864 
      6 C6        -81.2789   27.9932  -73.2766 C.3       11 UNK        -0.0881 
      7 S7        -81.6479   29.2539  -72.0075 S.3       11 UNK        -0.2682 
      8 C8        -80.3810   30.5278  -72.3426 C.3       11 UNK         0.0289 
      9 C9        -78.9462   30.0116  -72.2726 C.ar      11 UNK        -0.0687 
     10 C10       -78.5488   29.1147  -71.2759 C.ar      11 UNK        -0.0823 
     11 C11       -77.2482   28.6056  -71.2524 C.ar      11 UNK        -0.0830 
     12 C12       -76.3228   29.0384  -72.2064 C.ar      11 UNK        -0.1021 
     13 C13       -76.6966   29.9585  -73.1899 C.ar      11 UNK        -0.0753 
     14 C14       -78.0104   30.4351  -73.2214 C.ar      11 UNK        -0.0933 
     15 C15       -75.6961   30.4215  -74.2377 C.3       11 UNK         0.0166 
     16 S16       -74.8852   31.9779  -73.7562 S.3       11 UNK        -0.2615 
     17 C17       -73.5453   31.3837  -72.6666 C.3       11 UNK        -0.0865 
     18 CA        -72.1581   31.4405  -73.3562 C.3       10 UNK         0.0862 
     19 C         -71.0349   31.0433  -72.3626 C.2       10 UNK         0.5551 
     20 N         -70.3004   32.0110  -71.8319 N.am      10 UNK        -0.7319 
     21 O         -70.8608   29.8716  -72.0343 O.2       10 UNK        -0.5018 
     22 N         -72.1264   30.6103  -74.5669 N.am      10 UNK        -0.4509 
     23 C         -71.2088   30.6949  -75.5365 C.2       10 UNK         0.4899 
     24 O         -70.2959   31.5227  -75.5489 O.2       10 UNK        -0.4839 
     25 CA        -71.3624   29.6867  -76.6923 C.3       9 UNK         0.0222 
     26 CB        -70.1539   29.6719  -77.6530 C.3       9 UNK        -0.1966 
     27 N         -71.6826   28.3324  -76.2234 N.am      9 UNK        -0.4218 
     28 C         -70.9264   27.5452  -75.4371 C.2       9 UNK         0.5020 
     29 O         -69.8125   27.8603  -75.0165 O.2       9 UNK        -0.5274 
     30 CA        -71.4986   26.1699  -75.0389 C.3       8 UNK         0.0270 
     31 CB        -71.9296   26.1798  -73.5625 C.3       8 UNK        -0.1976 
     32 N         -72.6238   25.7449  -75.8779 N.am      8 UNK        -0.4313 
     33 C         -72.4955   25.3277  -77.1480 C.2       8 UNK         0.5041 
     34 O         -71.4044   25.1619  -77.6952 O.2       8 UNK        -0.5577 
     35 CA        -73.7758   25.0716  -77.9692 C.3       7 UNK         0.0284 
     36 CB        -73.9982   23.5616  -78.1544 C.3       7 UNK        -0.1958 
     37 N         -74.9969   25.6738  -77.4249 N.am      7 UNK        -0.4454 
     38 C         -75.2005   26.9828  -77.2151 C.2       7 UNK         0.5089 
     39 O         -74.3733   27.8569  -77.4779 O.2       7 UNK        -0.5125 
     40 CA        -76.5132   27.3725  -76.5116 C.3       6 UNK         0.0408 
     41 CB        -77.6416   27.5709  -77.5314 C.3       6 UNK        -0.1791 
     42 N         -76.9259   26.4141  -75.4781 N.am      6 UNK        -0.4762 
     43 C         -76.1846   26.0986  -74.4025 C.2       6 UNK         0.5007 
     44 O         -75.0805   26.5953  -74.1812 O.2       6 UNK        -0.5032 
     45 CA        -76.7174   25.0033  -73.4577 C.3       5 UNK         0.0783 
     46 C46       -77.4372   25.5718  -72.2100 C.3       11 UNK        -0.0857 
     47 S47       -76.2320   26.0141  -70.9050 S.3       11 UNK        -0.2512 
     48 C48       -76.8604   27.5762  -70.2005 C.3       11 UNK         0.0225 
     49 N         -77.5350   24.0235  -74.1799 N.am      5 UNK        -0.4615 
     50 C         -76.9956   22.9976  -74.8536 C.2       4 UNK         0.5053 
     51 O         -75.7855   22.7786  -74.9152 O.2       4 UNK        -0.5105 
     52 CA        -77.9579   22.0546  -75.5872 C.3       4 UNK         0.0263 
     53 CB        -78.8178   21.2624  -74.5872 C.3       4 UNK        -0.1981 
     54 N         -78.8284   22.7200  -76.5560 N.am      4 UNK        -0.4224 
     55 C         -78.4500   23.5026  -77.5794 C.2       3 UNK         0.4895 
     56 O         -77.2915   23.8577  -77.7911 O.2       3 UNK        -0.5091 
     57 CA        -79.5655   23.9641  -78.5369 C.3       3 UNK         0.0250 
     58 CB        -79.6673   23.0120  -79.7392 C.3       3 UNK        -0.1996 
     59 N         -80.8633   24.0376  -77.8611 N.am      3 UNK        -0.4254 
     60 C         -81.1891   25.0108  -77.0012 C.2       2 UNK         0.5004 
     61 O         -80.5373   26.0508  -76.8831 O.2       2 UNK        -0.5226 
     62 CA        -82.4304   24.7742  -76.1144 C.3       2 UNK         0.0269 
     63 CB        -82.6769   23.2829  -75.7871 C.3       2 UNK        -0.1926 
     64 N         -82.3849   25.5543  -74.8705 N.am      2 UNK        -0.4687 
     65 C         -81.4202   25.5457  -73.9353 C.2       1 UNK         0.5165 
     66 O         -80.4128   24.8270  -73.9715 O.2       1 UNK        -0.5079 
     67 H67       -79.7443   23.8912  -69.7493 H         1 UNK         0.0900 
     68 H68       -79.3848   25.6105  -69.5879 H         1 UNK         0.0900 
     69 H69       -80.7310   24.9059  -68.6929 H         1 UNK         0.0900 
     70 H70       -80.0168   26.7332  -71.4301 H         1 UNK         0.2959 
     71 H71       -82.6726   26.5360  -72.5133 H         1 UNK         0.1079 
     72 H72       -81.8577   28.2499  -74.1659 H         1 UNK         0.0837 
     73 H73       -80.2310   28.0507  -73.5761 H         1 UNK         0.0837 
     74 H74       -80.5838   30.9590  -73.3243 H         1 UNK         0.0685 
     75 H75       -80.4966   31.3359  -71.6194 H         1 UNK         0.0685 
     76 H76       -79.2636   28.7960  -70.5299 H         1 UNK         0.1434 
     77 H77       -75.3187   28.6372  -72.1944 H         1 UNK         0.1329 
     78 H78       -78.3032   31.1371  -73.9903 H         1 UNK         0.1335 
     79 H79       -74.9504   29.6475  -74.4255 H         1 UNK         0.0680 
     80 H80       -76.2105   30.5829  -75.1861 H         1 UNK         0.0680 
     81 H81       -73.5476   32.0137  -71.7749 H         1 UNK         0.1032 
     82 H82       -73.7607   30.3739  -72.3161 H         1 UNK         0.1032 
     83 H83       -71.9880   32.4738  -73.6671 H         1 UNK         0.0461 
     84 H84       -69.5778   31.7717  -71.1709 H         1 UNK         0.3453 
     85 H85       -70.4429   32.9751  -72.0908 H         1 UNK         0.3453 
     86 H86       -72.8186   29.8803  -74.6236 H         1 UNK         0.2984 
     87 H87       -72.2295   30.0164  -77.2666 H         1 UNK         0.0554 
     88 H88       -70.3024   28.9612  -78.4660 H         1 UNK         0.0847 
     89 H89       -69.2292   29.4063  -77.1398 H         1 UNK         0.0847 
     90 H90       -70.0026   30.6530  -78.1047 H         1 UNK         0.0847 
     91 H91       -72.5836   27.9773  -76.5310 H         1 UNK         0.3141 
     92 H92       -70.6970   25.4366  -75.1502 H         1 UNK         0.0743 
     93 H93       -72.6492   26.9725  -73.3555 H         1 UNK         0.0784 
     94 H94       -72.3776   25.2308  -73.2673 H         1 UNK         0.0784 
     95 H95       -71.0718   26.3514  -72.9108 H         1 UNK         0.0784 
     96 H96       -73.5520   25.8716  -75.4882 H         1 UNK         0.3213 
     97 H97       -73.6107   25.5141  -78.9537 H         1 UNK         0.0855 
     98 H98       -74.2319   23.0712  -77.2087 H         1 UNK         0.0814 
     99 H99       -73.1092   23.0790  -78.5627 H         1 UNK         0.0814 
    100 H100      -74.8170   23.3630  -78.8460 H         1 UNK         0.0814 
    101 H101      -75.7618   25.0338  -77.2288 H         1 UNK         0.3105 
    102 H102      -76.3443   28.3275  -76.0152 H         1 UNK         0.0547 
    103 H103      -77.3602   28.3056  -78.2869 H         1 UNK         0.0837 
    104 H104      -77.8818   26.6447  -78.0518 H         1 UNK         0.0837 
    105 H105      -78.5507   27.9337  -77.0516 H         1 UNK         0.0837 
    106 H106      -77.8125   25.9480  -75.6118 H         1 UNK         0.3020 
    107 H107      -75.8316   24.4741  -73.0963 H         1 UNK         0.1245 
    108 H108      -78.0952   24.8136  -71.7838 H         1 UNK         0.0781 
    109 H109      -78.0798   26.4111  -72.4764 H         1 UNK         0.0781 
    110 H110      -76.0900   28.0037  -69.5575 H         1 UNK         0.0836 
    111 H111      -77.7044   27.3490  -69.5485 H         1 UNK         0.0836 
    112 H112      -78.5430   24.1592  -74.1701 H         1 UNK         0.3022 
    113 H113      -77.3483   21.3414  -76.1459 H         1 UNK         0.0747 
    114 H114      -79.4043   20.4933  -75.0900 H         1 UNK         0.0793 
    115 H115      -78.1932   20.7580  -73.8484 H         1 UNK         0.0793 
    116 H116      -79.5087   21.9085  -74.0434 H         1 UNK         0.0793 
    117 H117      -79.8119   22.5184  -76.4692 H         1 UNK         0.3047 
    118 H118      -79.3021   24.9550  -78.9116 H         1 UNK         0.0822 
    119 H119      -80.4179   23.3530  -80.4525 H         1 UNK         0.0807 
    120 H120      -79.9282   21.9977  -79.4348 H         1 UNK         0.0807 
    121 H121      -78.7170   22.9574  -80.2727 H         1 UNK         0.0807 
    122 H122      -81.4751   23.2392  -77.9526 H         1 UNK         0.2946 
    123 H123      -83.2850   25.1433  -76.6840 H         1 UNK         0.1144 
    124 H124      -83.5313   23.1663  -75.1201 H         1 UNK         0.0793 
    125 H125      -81.8166   22.8254  -75.2974 H         1 UNK         0.0793 
    126 H126      -82.9011   22.7025  -76.6825 H         1 UNK         0.0793 
    127 H127      -83.1431   26.2126  -74.7568 H         1 UNK         0.2896 
@<TRIPOS>BOND
     1    1    2 1    
     2    1   67 1    
     3    1   68 1    
     4    1   69 1    
     5    2    3 2    
     6    2    4 am   BACKBONE|DICT|INTERRES
     7    4    5 1    
     8    4   70 1    
     9    5    6 1    
    10    5   65 1    
    11    5   71 1    
    12    6    7 1    
    13    6   72 1    
    14    6   73 1    
    15    7    8 1    
    16    8    9 1    
    17    8   74 1    
    18    8   75 1    
    19    9   10 ar   
    20    9   14 ar   
    21   10   11 ar   
    22   10   76 1    
    23   11   12 ar   
    24   11   48 1    
    25   12   13 ar   
    26   12   77 1    
    27   13   14 ar   
    28   13   15 1    
    29   14   78 1    
    30   15   16 1    
    31   15   79 1    
    32   15   80 1    
    33   16   17 1    
    34   17   18 1    
    35   17   81 1    
    36   17   82 1    
    37   18   19 1    
    38   18   22 1    
    39   18   83 1    
    40   19   20 am   BACKBONE|DICT|INTERRES
    41   19   21 2    
    42   20   84 1    
    43   20   85 1    
    44   22   23 am   BACKBONE|DICT|INTERRES
    45   22   86 1    
    46   23   24 2    
    47   23   25 1    
    48   25   26 1    
    49   25   27 1    
    50   25   87 1    
    51   26   88 1    
    52   26   89 1    
    53   26   90 1    
    54   27   28 am   BACKBONE|DICT|INTERRES
    55   27   91 1    
    56   28   29 2    
    57   28   30 1    
    58   30   31 1    
    59   30   32 1    
    60   30   92 1    
    61   31   93 1    
    62   31   94 1    
    63   31   95 1    
    64   32   33 am   BACKBONE|DICT|INTERRES
    65   32   96 1    
    66   33   34 2    
    67   33   35 1    
    68   35   36 1    
    69   35   37 1    
    70   35   97 1    
    71   36   98 1    
    72   36   99 1    
    73   36  100 1    
    74   37   38 am   BACKBONE|DICT|INTERRES
    75   37  101 1    
    76   38   39 2    
    77   38   40 1    
    78   40   41 1    
    79   40   42 1    
    80   40  102 1    
    81   41  103 1    
    82   41  104 1    
    83   41  105 1    
    84   42   43 am   BACKBONE|DICT|INTERRES
    85   42  106 1    
    86   43   44 2    
    87   43   45 1    
    88   45   46 1    
    89   45   49 1    
    90   45  107 1    
    91   46   47 1    
    92   46  108 1    
    93   46  109 1    
    94   47   48 1    
    95   48  110 1    
    96   48  111 1    
    97   49   50 am   BACKBONE|DICT|INTERRES
    98   49  112 1    
    99   50   51 2    
   100   50   52 1    
   101   52   53 1    
   102   52   54 1    
   103   52  113 1    
   104   53  114 1    
   105   53  115 1    
   106   53  116 1    
   107   54   55 am   BACKBONE|DICT|INTERRES
   108   54  117 1    
   109   55   56 2    
   110   55   57 1    
   111   57   58 1    
   112   57   59 1    
   113   57  118 1    
   114   58  119 1    
   115   58  120 1    
   116   58  121 1    
   117   59   60 am   BACKBONE|DICT|INTERRES
   118   59  122 1    
   119   60   61 2    
   120   60   62 1    
   121   62   63 1    
   122   62   64 1    
   123   62  123 1    
   124   63  124 1    
   125   63  125 1    
   126   63  126 1    
   127   64   65 am   BACKBONE|DICT|INTERRES
   128   64  127 1    
   129   65   66 2    
@<TRIPOS>SUBSTRUCTURE
     1 UNK         1 GROUP             0       ****    0 ROOT    
