@<TRIPOS>MOLECULE
3R135
127   129    1
SMALL
USER_CHARGES


@<TRIPOS>ATOM
      1 CA        -82.1791   32.3908  -75.4233 C.3       0 UNK        -0.1998 
      2 C         -81.1812   31.2757  -75.1491 C.2       0 UNK         0.4909 
      3 O         -80.0684   31.3091  -75.6743 O.2       0 UNK        -0.5240 
      4 N         -81.5722   30.2924  -74.3277 N.am      1 UNK        -0.4739 
      5 CA        -80.7545   29.1317  -73.9468 C.3       1 UNK         0.0864 
      6 C6        -81.3923   28.3448  -72.7745 C.3       11 UNK        -0.0881 
      7 S7        -81.5331   29.3723  -71.2715 S.3       11 UNK        -0.2682 
      8 C8        -80.6685   28.3643  -70.0195 C.3       11 UNK         0.0289 
      9 C9        -79.2331   28.0086  -70.3951 C.ar      11 UNK        -0.0687 
     10 C10       -78.7906   26.6881  -70.2639 C.ar      11 UNK        -0.0823 
     11 C11       -77.4777   26.3397  -70.5943 C.ar      11 UNK        -0.0830 
     12 C12       -76.6029   27.3253  -71.0617 C.ar      11 UNK        -0.1021 
     13 C13       -77.0270   28.6514  -71.1835 C.ar      11 UNK        -0.0753 
     14 C14       -78.3412   28.9882  -70.8462 C.ar      11 UNK        -0.0933 
     15 C15       -76.0566   29.7218  -71.6562 C.3       11 UNK         0.0166 
     16 S16       -75.9599   29.7684  -73.4698 S.3       11 UNK        -0.2615 
     17 C17       -74.7575   31.1206  -73.7247 C.3       11 UNK        -0.0865 
     18 CA        -73.3295   30.6452  -74.1340 C.3       10 UNK         0.0862 
     19 C         -72.5210   30.0559  -72.9423 C.2       10 UNK         0.5551 
     20 N         -71.7674   28.9742  -73.0893 N.am      10 UNK        -0.7319 
     21 O         -72.5546   30.6120  -71.8472 O.2       10 UNK        -0.5018 
     22 N         -73.3222   29.8274  -75.3596 N.am      10 UNK        -0.4509 
     23 C         -73.6192   30.2965  -76.5788 C.2       10 UNK         0.4899 
     24 O         -73.8631   31.4821  -76.8129 O.2       10 UNK        -0.4839 
     25 CA        -73.6618   29.2666  -77.7253 C.3       9 UNK         0.0222 
     26 CB        -73.9496   29.9010  -79.1035 C.3       9 UNK        -0.1966 
     27 N         -72.4637   28.4238  -77.7792 N.am      9 UNK        -0.4218 
     28 C         -71.1902   28.8205  -77.9468 C.2       9 UNK         0.5020 
     29 O         -70.8588   29.9916  -78.1406 O.2       9 UNK        -0.5274 
     30 CA        -70.0957   27.7272  -77.9078 C.3       8 UNK         0.0270 
     31 CB        -68.7683   28.2494  -77.3157 C.3       8 UNK        -0.1976 
     32 N         -70.5039   26.4823  -77.2388 N.am      8 UNK        -0.4313 
     33 C         -70.9237   26.3596  -75.9726 C.2       8 UNK         0.5041 
     34 O         -70.9897   27.2951  -75.1721 O.2       8 UNK        -0.5577 
     35 CA        -71.4299   24.9719  -75.5476 C.3       7 UNK         0.0284 
     36 CB        -70.4461   24.3101  -74.5704 C.3       7 UNK        -0.1958 
     37 N         -72.7486   25.0683  -74.9181 N.am      7 UNK        -0.4454 
     38 C         -73.8412   25.5993  -75.4810 C.2       7 UNK         0.5089 
     39 O         -73.8888   25.9774  -76.6544 O.2       7 UNK        -0.5125 
     40 CA        -75.0724   25.7349  -74.5689 C.3       6 UNK         0.0408 
     41 CB        -76.1757   26.5963  -75.2034 C.3       6 UNK        -0.1791 
     42 N         -75.6341   24.4346  -74.2001 N.am      6 UNK        -0.4762 
     43 C         -75.1226   23.5961  -73.2845 C.2       6 UNK         0.5007 
     44 O         -74.0755   23.8206  -72.6741 O.2       6 UNK        -0.5032 
     45 CA        -75.9139   22.3060  -72.9641 C.3       5 UNK         0.0783 
     46 C46       -76.6223   22.3930  -71.5873 C.3       11 UNK        -0.0857 
     47 S47       -77.8669   23.7307  -71.4820 S.3       11 UNK        -0.2512 
     48 C48       -76.9884   24.9109  -70.4073 C.3       11 UNK         0.0225 
     49 N         -76.8596   21.9316  -74.0173 N.am      5 UNK        -0.4615 
     50 C         -76.5263   21.4418  -75.2176 C.2       4 UNK         0.5053 
     51 O         -75.3683   21.1909  -75.5516 O.2       4 UNK        -0.5105 
     52 CA        -77.6706   21.1895  -76.2197 C.3       4 UNK         0.0263 
     53 CB        -77.9629   19.6838  -76.3284 C.3       4 UNK        -0.1981 
     54 N         -78.9231   21.8993  -75.9222 N.am      4 UNK        -0.4224 
     55 C         -79.0669   23.2311  -75.8973 C.2       3 UNK         0.4895 
     56 O         -78.1349   24.0222  -76.0570 O.2       3 UNK        -0.5091 
     57 CA        -80.4760   23.7589  -75.6052 C.3       3 UNK         0.0250 
     58 CB        -80.7608   23.7503  -74.0932 C.3       3 UNK        -0.1996 
     59 N         -80.5790   25.1287  -76.0963 N.am      3 UNK        -0.4254 
     60 C         -81.6092   25.6586  -76.7607 C.2       2 UNK         0.5004 
     61 O         -82.6487   25.0465  -77.0150 O.2       2 UNK        -0.5226 
     62 CA        -81.4548   27.1346  -77.1806 C.3       2 UNK         0.0269 
     63 CB        -82.5382   27.5831  -78.1795 C.3       2 UNK        -0.1926 
     64 N         -81.4854   28.0290  -76.0203 N.am      2 UNK        -0.4687 
     65 C         -80.4888   28.1888  -75.1370 C.2       1 UNK         0.5165 
     66 O         -79.3996   27.6250  -75.2359 O.2       1 UNK        -0.5079 
     67 H67       -81.7638   33.3498  -75.1145 H         1 UNK         0.0900 
     68 H68       -82.4004   32.4422  -76.4891 H         1 UNK         0.0900 
     69 H69       -83.1170   32.2399  -74.8890 H         1 UNK         0.0900 
     70 H70       -82.4868   30.3373  -73.9010 H         1 UNK         0.2959 
     71 H71       -79.7797   29.5028  -73.6199 H         1 UNK         0.1079 
     72 H72       -80.8072   27.4503  -72.5511 H         1 UNK         0.0837 
     73 H73       -82.3890   27.9895  -73.0427 H         1 UNK         0.0837 
     74 H74       -81.2559   27.4616  -69.8438 H         1 UNK         0.0685 
     75 H75       -80.6571   28.9121  -69.0765 H         1 UNK         0.0685 
     76 H76       -79.4657   25.9250  -69.9005 H         1 UNK         0.1434 
     77 H77       -75.5846   27.0672  -71.3194 H         1 UNK         0.1329 
     78 H78       -78.6724   30.0136  -70.9374 H         1 UNK         0.1335 
     79 H79       -76.3624   30.7007  -71.2838 H         1 UNK         0.0680 
     80 H80       -75.0660   29.5282  -71.2426 H         1 UNK         0.0680 
     81 H81       -75.1623   31.7688  -74.5026 H         1 UNK         0.1032 
     82 H82       -74.7160   31.7537  -72.8365 H         1 UNK         0.1032 
     83 H83       -72.7664   31.5472  -74.3811 H         1 UNK         0.0461 
     84 H84       -71.2616   28.6440  -72.2838 H         1 UNK         0.3453 
     85 H85       -71.6178   28.4997  -73.9773 H         1 UNK         0.3453 
     86 H86       -73.0948   28.8508  -75.2407 H         1 UNK         0.2984 
     87 H87       -74.4928   28.5975  -77.4981 H         1 UNK         0.0554 
     88 H88       -74.9000   30.4361  -79.0951 H         1 UNK         0.0847 
     89 H89       -74.0133   29.1429  -79.8838 H         1 UNK         0.0847 
     90 H90       -73.1783   30.6158  -79.3918 H         1 UNK         0.0847 
     91 H91       -72.6334   27.4410  -77.5930 H         1 UNK         0.3141 
     92 H92       -69.9078   27.4616  -78.9491 H         1 UNK         0.0743 
     93 H93       -68.3763   29.0818  -77.9014 H         1 UNK         0.0784 
     94 H94       -68.8946   28.6043  -76.2923 H         1 UNK         0.0784 
     95 H95       -68.0034   27.4730  -77.3095 H         1 UNK         0.0784 
     96 H96       -70.5134   25.6590  -77.8265 H         1 UNK         0.3213 
     97 H97       -71.5298   24.3358  -76.4295 H         1 UNK         0.0855 
     98 H98       -70.3265   24.8990  -73.6598 H         1 UNK         0.0814 
     99 H99       -69.4588   24.2044  -75.0221 H         1 UNK         0.0814 
    100 H100      -70.7801   23.3126  -74.2838 H         1 UNK         0.0814 
    101 H101      -72.8315   24.7495  -73.9583 H         1 UNK         0.3105 
    102 H102      -74.7480   26.2447  -73.6592 H         1 UNK         0.0547 
    103 H103      -76.5793   26.1428  -76.1087 H         1 UNK         0.0837 
    104 H104      -75.7957   27.5799  -75.4793 H         1 UNK         0.0837 
    105 H105      -76.9990   26.7527  -74.5064 H         1 UNK         0.0837 
    106 H106      -76.4843   24.1658  -74.6840 H         1 UNK         0.3020 
    107 H107      -75.1710   21.5073  -72.8987 H         1 UNK         0.1245 
    108 H108      -75.8855   22.5044  -70.7896 H         1 UNK         0.0781 
    109 H109      -77.1278   21.4493  -71.3763 H         1 UNK         0.0781 
    110 H110      -75.9169   24.8587  -70.6060 H         1 UNK         0.0836 
    111 H111      -77.1209   24.6141  -69.3660 H         1 UNK         0.0836 
    112 H112      -77.8327   22.1159  -73.8234 H         1 UNK         0.3022 
    113 H113      -77.3204   21.5399  -77.1929 H         1 UNK         0.0747 
    114 H114      -78.6970   19.4759  -77.1072 H         1 UNK         0.0793 
    115 H115      -77.0598   19.1269  -76.5826 H         1 UNK         0.0793 
    116 H116      -78.3422   19.2776  -75.3898 H         1 UNK         0.0793 
    117 H117      -79.7363   21.3219  -75.7603 H         1 UNK         0.3047 
    118 H118      -81.1963   23.1187  -76.1193 H         1 UNK         0.0822 
    119 H119      -81.7707   24.1015  -73.8809 H         1 UNK         0.0807 
    120 H120      -80.0657   24.3932  -73.5509 H         1 UNK         0.0807 
    121 H121      -80.6733   22.7463  -73.6763 H         1 UNK         0.0807 
    122 H122      -79.7630   25.7100  -75.9252 H         1 UNK         0.2946 
    123 H123      -80.4852   27.2333  -77.6748 H         1 UNK         0.1144 
    124 H124      -82.3677   28.6059  -78.5162 H         1 UNK         0.0793 
    125 H125      -83.5370   27.5353  -77.7439 H         1 UNK         0.0793 
    126 H126      -82.5380   26.9476  -79.0662 H         1 UNK         0.0793 
    127 H127      -82.3486   28.5262  -75.8556 H         1 UNK         0.2896 
@<TRIPOS>BOND
     1    1    2 1    
     2    1   67 1    
     3    1   68 1    
     4    1   69 1    
     5    2    3 2    
     6    2    4 am   BACKBONE|DICT|INTERRES
     7    4    5 1    
     8    4   70 1    
     9    5    6 1    
    10    5   65 1    
    11    5   71 1    
    12    6    7 1    
    13    6   72 1    
    14    6   73 1    
    15    7    8 1    
    16    8    9 1    
    17    8   74 1    
    18    8   75 1    
    19    9   10 ar   
    20    9   14 ar   
    21   10   11 ar   
    22   10   76 1    
    23   11   12 ar   
    24   11   48 1    
    25   12   13 ar   
    26   12   77 1    
    27   13   14 ar   
    28   13   15 1    
    29   14   78 1    
    30   15   16 1    
    31   15   79 1    
    32   15   80 1    
    33   16   17 1    
    34   17   18 1    
    35   17   81 1    
    36   17   82 1    
    37   18   19 1    
    38   18   22 1    
    39   18   83 1    
    40   19   20 am   BACKBONE|DICT|INTERRES
    41   19   21 2    
    42   20   84 1    
    43   20   85 1    
    44   22   23 am   BACKBONE|DICT|INTERRES
    45   22   86 1    
    46   23   24 2    
    47   23   25 1    
    48   25   26 1    
    49   25   27 1    
    50   25   87 1    
    51   26   88 1    
    52   26   89 1    
    53   26   90 1    
    54   27   28 am   BACKBONE|DICT|INTERRES
    55   27   91 1    
    56   28   29 2    
    57   28   30 1    
    58   30   31 1    
    59   30   32 1    
    60   30   92 1    
    61   31   93 1    
    62   31   94 1    
    63   31   95 1    
    64   32   33 am   BACKBONE|DICT|INTERRES
    65   32   96 1    
    66   33   34 2    
    67   33   35 1    
    68   35   36 1    
    69   35   37 1    
    70   35   97 1    
    71   36   98 1    
    72   36   99 1    
    73   36  100 1    
    74   37   38 am   BACKBONE|DICT|INTERRES
    75   37  101 1    
    76   38   39 2    
    77   38   40 1    
    78   40   41 1    
    79   40   42 1    
    80   40  102 1    
    81   41  103 1    
    82   41  104 1    
    83   41  105 1    
    84   42   43 am   BACKBONE|DICT|INTERRES
    85   42  106 1    
    86   43   44 2    
    87   43   45 1    
    88   45   46 1    
    89   45   49 1    
    90   45  107 1    
    91   46   47 1    
    92   46  108 1    
    93   46  109 1    
    94   47   48 1    
    95   48  110 1    
    96   48  111 1    
    97   49   50 am   BACKBONE|DICT|INTERRES
    98   49  112 1    
    99   50   51 2    
   100   50   52 1    
   101   52   53 1    
   102   52   54 1    
   103   52  113 1    
   104   53  114 1    
   105   53  115 1    
   106   53  116 1    
   107   54   55 am   BACKBONE|DICT|INTERRES
   108   54  117 1    
   109   55   56 2    
   110   55   57 1    
   111   57   58 1    
   112   57   59 1    
   113   57  118 1    
   114   58  119 1    
   115   58  120 1    
   116   58  121 1    
   117   59   60 am   BACKBONE|DICT|INTERRES
   118   59  122 1    
   119   60   61 2    
   120   60   62 1    
   121   62   63 1    
   122   62   64 1    
   123   62  123 1    
   124   63  124 1    
   125   63  125 1    
   126   63  126 1    
   127   64   65 am   BACKBONE|DICT|INTERRES
   128   64  127 1    
   129   65   66 2    
@<TRIPOS>SUBSTRUCTURE
     1 UNK         1 GROUP             0       ****    0 ROOT    
