@<TRIPOS>MOLECULE
3R135
127   129    1
SMALL
USER_CHARGES


@<TRIPOS>ATOM
      1 CA        -84.3051   24.6822  -72.5277 C.3       0 UNK        -0.1998 
      2 C         -83.7688   26.0598  -72.8881 C.2       0 UNK         0.4909 
      3 O         -84.4384   27.0627  -72.6389 O.2       0 UNK        -0.5240 
      4 N         -82.5683   26.1148  -73.4736 N.am      1 UNK        -0.4739 
      5 CA        -81.9001   27.3402  -73.9100 C.3       1 UNK         0.0864 
      6 C6        -81.0353   27.9629  -72.7830 C.3       11 UNK        -0.0881 
      7 S7        -80.7704   29.7532  -73.0164 S.3       11 UNK        -0.2682 
      8 C8        -80.3769   30.2826  -71.3170 C.3       11 UNK         0.0289 
      9 C9        -78.9734   29.8576  -70.9100 C.ar      11 UNK        -0.0687 
     10 C10       -78.7463   28.5770  -70.3982 C.ar      11 UNK        -0.0823 
     11 C11       -77.4532   28.1586  -70.0735 C.ar      11 UNK        -0.0830 
     12 C12       -76.3869   29.0530  -70.2127 C.ar      11 UNK        -0.1021 
     13 C13       -76.6007   30.3341  -70.7296 C.ar      11 UNK        -0.0753 
     14 C14       -77.8961   30.7343  -71.0704 C.ar      11 UNK        -0.0933 
     15 C15       -75.4239   31.2656  -70.9624 C.3       11 UNK         0.0166 
     16 S16       -74.9052   31.2151  -72.7083 S.3       11 UNK        -0.2615 
     17 C17       -73.0942   31.4086  -72.5589 C.3       11 UNK        -0.0865 
     18 CA        -72.3081   30.0984  -72.8404 C.3       10 UNK         0.0862 
     19 C         -72.5411   28.9995  -71.7658 C.2       10 UNK         0.5551 
     20 N         -72.9583   27.7917  -72.1232 N.am      10 UNK        -0.7319 
     21 O         -72.3117   29.2415  -70.5835 O.2       10 UNK        -0.5018 
     22 N         -72.4652   29.6336  -74.2279 N.am      10 UNK        -0.4509 
     23 C         -71.7593   30.0913  -75.2675 C.2       10 UNK         0.4899 
     24 O         -70.9225   30.9928  -75.1857 O.2       10 UNK        -0.4839 
     25 CA        -72.0336   29.4106  -76.6213 C.3       9 UNK         0.0222 
     26 CB        -71.1272   29.9251  -77.7596 C.3       9 UNK        -0.1966 
     27 N         -71.9771   27.9479  -76.5290 N.am      9 UNK        -0.4218 
     28 C         -70.9401   27.1791  -76.1608 C.2       9 UNK         0.5020 
     29 O         -69.8234   27.6153  -75.8776 O.2       9 UNK        -0.5274 
     30 CA        -71.1832   25.6587  -76.0756 C.3       8 UNK         0.0270 
     31 CB        -71.2577   25.2146  -74.6052 C.3       8 UNK        -0.1976 
     32 N         -72.3972   25.2154  -76.7683 N.am      8 UNK        -0.4313 
     33 C         -72.5411   25.1461  -78.0992 C.2       8 UNK         0.5041 
     34 O         -71.6294   25.3591  -78.8993 O.2       8 UNK        -0.5577 
     35 CA        -73.9537   24.8335  -78.6264 C.3       7 UNK         0.0284 
     36 CB        -74.2259   23.3214  -78.6083 C.3       7 UNK        -0.1958 
     37 N         -75.0024   25.5385  -77.8808 N.am      7 UNK        -0.4454 
     38 C         -75.1384   26.8725  -77.8402 C.2       7 UNK         0.5089 
     39 O         -74.4304   27.6535  -78.4740 O.2       7 UNK        -0.5125 
     40 CA        -76.2090   27.4391  -76.8967 C.3       6 UNK         0.0408 
     41 CB        -77.5782   27.4790  -77.5897 C.3       6 UNK        -0.1791 
     42 N         -76.2963   26.6834  -75.6460 N.am      6 UNK        -0.4762 
     43 C         -75.3724   26.7257  -74.6751 C.2       6 UNK         0.5007 
     44 O         -74.3712   27.4459  -74.7075 O.2       6 UNK        -0.5032 
     45 CA        -75.5711   25.7796  -73.4743 C.3       5 UNK         0.0783 
     46 C46       -76.4743   26.4284  -72.4004 C.3       11 UNK        -0.0857 
     47 S47       -76.0754   25.7976  -70.7330 S.3       11 UNK        -0.2512 
     48 C48       -77.2100   26.7201  -69.6319 C.3       11 UNK         0.0225 
     49 N         -76.0459   24.4520  -73.8760 N.am      5 UNK        -0.4615 
     50 C         -75.3336   23.5976  -74.6225 C.2       4 UNK         0.5053 
     51 O         -74.1996   23.8360  -75.0351 O.2       4 UNK        -0.5105 
     52 CA        -76.0094   22.2726  -75.0133 C.3       4 UNK         0.0263 
     53 CB        -75.8140   21.2257  -73.9054 C.3       4 UNK        -0.1981 
     54 N         -77.4370   22.3890  -75.3324 N.am      4 UNK        -0.4224 
     55 C         -77.9686   23.2031  -76.2561 C.2       3 UNK         0.4895 
     56 O         -77.3062   24.0074  -76.9162 O.2       3 UNK        -0.5091 
     57 CA        -79.4865   23.1152  -76.4826 C.3       3 UNK         0.0250 
     58 CB        -80.2657   22.4487  -75.3284 C.3       3 UNK        -0.1996 
     59 N         -80.0066   24.4599  -76.7058 N.am      3 UNK        -0.4254 
     60 C         -80.9723   24.8053  -77.5609 C.2       2 UNK         0.5004 
     61 O         -81.5701   24.0031  -78.2810 O.2       2 UNK        -0.5226 
     62 CA        -81.3507   26.3013  -77.5781 C.3       2 UNK         0.0269 
     63 CB        -82.3926   26.6371  -78.6617 C.3       2 UNK        -0.1926 
     64 N         -81.8595   26.7505  -76.2773 N.am      2 UNK        -0.4687 
     65 C         -81.1183   26.9902  -75.1859 C.2       1 UNK         0.5165 
     66 O         -79.8932   26.8513  -75.1549 O.2       1 UNK        -0.5079 
     67 H67       -84.5008   24.6252  -71.4569 H         1 UNK         0.0900 
     68 H68       -83.6025   23.8893  -72.7869 H         1 UNK         0.0900 
     69 H69       -85.2401   24.4932  -73.0560 H         1 UNK         0.0900 
     70 H70       -82.0688   25.2590  -73.6755 H         1 UNK         0.2959 
     71 H71       -82.6625   28.0681  -74.1995 H         1 UNK         0.1079 
     72 H72       -81.5445   27.8336  -71.8269 H         1 UNK         0.0837 
     73 H73       -80.0746   27.4556  -72.6790 H         1 UNK         0.0837 
     74 H74       -81.1142   29.8816  -70.6198 H         1 UNK         0.0685 
     75 H75       -80.4672   31.3684  -71.2602 H         1 UNK         0.0685 
     76 H76       -79.5756   27.8925  -70.2863 H         1 UNK         0.1434 
     77 H77       -75.3823   28.7291  -69.9747 H         1 UNK         0.1329 
     78 H78       -78.0601   31.7195  -71.4856 H         1 UNK         0.1335 
     79 H79       -74.5971   30.9802  -70.3103 H         1 UNK         0.0680 
     80 H80       -75.6909   32.2885  -70.6931 H         1 UNK         0.0680 
     81 H81       -72.7816   32.1788  -73.2653 H         1 UNK         0.1032 
     82 H82       -72.8356   31.8056  -71.5759 H         1 UNK         0.1032 
     83 H83       -71.2510   30.3406  -72.7141 H         1 UNK         0.0461 
     84 H84       -73.0875   27.0961  -71.4066 H         1 UNK         0.3453 
     85 H85       -73.2025   27.5908  -73.0820 H         1 UNK         0.3453 
     86 H86       -73.1581   28.9079  -74.3852 H         1 UNK         0.2984 
     87 H87       -73.0631   29.6582  -76.8843 H         1 UNK         0.0554 
     88 H88       -71.3729   29.4449  -78.7069 H         1 UNK         0.0847 
     89 H89       -70.0720   29.7422  -77.5541 H         1 UNK         0.0847 
     90 H90       -71.2493   30.9997  -77.8999 H         1 UNK         0.0847 
     91 H91       -72.8501   27.4769  -76.7252 H         1 UNK         0.3141 
     92 H92       -70.3262   25.1654  -76.5389 H         1 UNK         0.0743 
     93 H93       -70.3589   25.5057  -74.0599 H         1 UNK         0.0784 
     94 H94       -72.1097   25.6618  -74.0928 H         1 UNK         0.0784 
     95 H95       -71.3501   24.1314  -74.5225 H         1 UNK         0.0784 
     96 H96       -73.1745   24.9219  -76.1792 H         1 UNK         0.3213 
     97 H97       -74.0032   25.1743  -79.6628 H         1 UNK         0.0855 
     98 H98       -74.1486   22.9084  -77.6032 H         1 UNK         0.0814 
     99 H99       -73.5060   22.7907  -79.2326 H         1 UNK         0.0814 
    100 H100      -75.2206   23.0908  -78.9905 H         1 UNK         0.0814 
    101 H101      -75.6757   24.9701  -77.3729 H         1 UNK         0.3105 
    102 H102      -75.9273   28.4662  -76.6540 H         1 UNK         0.0547 
    103 H103      -77.9468   26.4791  -77.8185 H         1 UNK         0.0837 
    104 H104      -78.3176   27.9825  -76.9677 H         1 UNK         0.0837 
    105 H105      -77.5231   28.0289  -78.5302 H         1 UNK         0.0837 
    106 H106      -77.0677   26.0370  -75.5573 H         1 UNK         0.3020 
    107 H107      -74.5760   25.6391  -73.0466 H         1 UNK         0.1245 
    108 H108      -77.5328   26.2724  -72.6169 H         1 UNK         0.0781 
    109 H109      -76.3232   27.5087  -72.3919 H         1 UNK         0.0781 
    110 H110      -78.1514   26.1714  -69.5775 H         1 UNK         0.0836 
    111 H111      -76.7999   26.7201  -68.6213 H         1 UNK         0.0836 
    112 H112      -76.9662   24.1800  -73.5646 H         1 UNK         0.3022 
    113 H113      -75.5105   21.9074  -75.9125 H         1 UNK         0.0747 
    114 H114      -74.7565   21.1051  -73.6651 H         1 UNK         0.0793 
    115 H115      -76.1867   20.2479  -74.2115 H         1 UNK         0.0793 
    116 H116      -76.3268   21.5087  -72.9852 H         1 UNK         0.0793 
    117 H117      -78.0589   21.7679  -74.8354 H         1 UNK         0.3047 
    118 H118      -79.6255   22.5200  -77.3872 H         1 UNK         0.0822 
    119 H119      -79.9799   21.4041  -75.2008 H         1 UNK         0.0807 
    120 H120      -81.3376   22.4552  -75.5271 H         1 UNK         0.0807 
    121 H121      -80.1051   22.9621  -74.3798 H         1 UNK         0.0807 
    122 H122      -79.5856   25.2007  -76.1527 H         1 UNK         0.2946 
    123 H123      -80.4431   26.8610  -77.8114 H         1 UNK         0.1144 
    124 H124      -83.3380   26.1213  -78.4885 H         1 UNK         0.0793 
    125 H125      -82.0368   26.3434  -79.6503 H         1 UNK         0.0793 
    126 H126      -82.5959   27.7075  -78.6986 H         1 UNK         0.0793 
    127 H127      -82.8638   26.8222  -76.1953 H         1 UNK         0.2896 
@<TRIPOS>BOND
     1    1    2 1    
     2    1   67 1    
     3    1   68 1    
     4    1   69 1    
     5    2    3 2    
     6    2    4 am   BACKBONE|DICT|INTERRES
     7    4    5 1    
     8    4   70 1    
     9    5    6 1    
    10    5   65 1    
    11    5   71 1    
    12    6    7 1    
    13    6   72 1    
    14    6   73 1    
    15    7    8 1    
    16    8    9 1    
    17    8   74 1    
    18    8   75 1    
    19    9   10 ar   
    20    9   14 ar   
    21   10   11 ar   
    22   10   76 1    
    23   11   12 ar   
    24   11   48 1    
    25   12   13 ar   
    26   12   77 1    
    27   13   14 ar   
    28   13   15 1    
    29   14   78 1    
    30   15   16 1    
    31   15   79 1    
    32   15   80 1    
    33   16   17 1    
    34   17   18 1    
    35   17   81 1    
    36   17   82 1    
    37   18   19 1    
    38   18   22 1    
    39   18   83 1    
    40   19   20 am   BACKBONE|DICT|INTERRES
    41   19   21 2    
    42   20   84 1    
    43   20   85 1    
    44   22   23 am   BACKBONE|DICT|INTERRES
    45   22   86 1    
    46   23   24 2    
    47   23   25 1    
    48   25   26 1    
    49   25   27 1    
    50   25   87 1    
    51   26   88 1    
    52   26   89 1    
    53   26   90 1    
    54   27   28 am   BACKBONE|DICT|INTERRES
    55   27   91 1    
    56   28   29 2    
    57   28   30 1    
    58   30   31 1    
    59   30   32 1    
    60   30   92 1    
    61   31   93 1    
    62   31   94 1    
    63   31   95 1    
    64   32   33 am   BACKBONE|DICT|INTERRES
    65   32   96 1    
    66   33   34 2    
    67   33   35 1    
    68   35   36 1    
    69   35   37 1    
    70   35   97 1    
    71   36   98 1    
    72   36   99 1    
    73   36  100 1    
    74   37   38 am   BACKBONE|DICT|INTERRES
    75   37  101 1    
    76   38   39 2    
    77   38   40 1    
    78   40   41 1    
    79   40   42 1    
    80   40  102 1    
    81   41  103 1    
    82   41  104 1    
    83   41  105 1    
    84   42   43 am   BACKBONE|DICT|INTERRES
    85   42  106 1    
    86   43   44 2    
    87   43   45 1    
    88   45   46 1    
    89   45   49 1    
    90   45  107 1    
    91   46   47 1    
    92   46  108 1    
    93   46  109 1    
    94   47   48 1    
    95   48  110 1    
    96   48  111 1    
    97   49   50 am   BACKBONE|DICT|INTERRES
    98   49  112 1    
    99   50   51 2    
   100   50   52 1    
   101   52   53 1    
   102   52   54 1    
   103   52  113 1    
   104   53  114 1    
   105   53  115 1    
   106   53  116 1    
   107   54   55 am   BACKBONE|DICT|INTERRES
   108   54  117 1    
   109   55   56 2    
   110   55   57 1    
   111   57   58 1    
   112   57   59 1    
   113   57  118 1    
   114   58  119 1    
   115   58  120 1    
   116   58  121 1    
   117   59   60 am   BACKBONE|DICT|INTERRES
   118   59  122 1    
   119   60   61 2    
   120   60   62 1    
   121   62   63 1    
   122   62   64 1    
   123   62  123 1    
   124   63  124 1    
   125   63  125 1    
   126   63  126 1    
   127   64   65 am   BACKBONE|DICT|INTERRES
   128   64  127 1    
   129   65   66 2    
@<TRIPOS>SUBSTRUCTURE
     1 UNK         1 GROUP             0       ****    0 ROOT    
