@<TRIPOS>MOLECULE
3R135
127   129    1
SMALL
USER_CHARGES


@<TRIPOS>ATOM
      1 CA        -78.4024   30.1020  -74.2308 C.3       0 UNK        -0.1998 
      2 C         -79.4711   29.8058  -75.2744 C.2       0 UNK         0.4909 
      3 O         -79.3873   30.3195  -76.3881 O.2       0 UNK        -0.5240 
      4 N         -80.4927   28.9991  -74.9725 N.am      1 UNK        -0.4739 
      5 CA        -80.7109   28.2413  -73.7420 C.3       1 UNK         0.0864 
      6 C6        -81.6229   29.0163  -72.7581 C.3       11 UNK        -0.0881 
      7 S7        -81.7696   28.2207  -71.1223 S.3       11 UNK        -0.2682 
      8 C8        -80.7388   29.2948  -70.0640 C.3       11 UNK         0.0289 
      9 C9        -79.2424   29.1304  -70.3102 C.ar      11 UNK        -0.0687 
     10 C10       -78.6661   27.8560  -70.3464 C.ar      11 UNK        -0.0823 
     11 C11       -77.2965   27.6981  -70.5753 C.ar      11 UNK        -0.0830 
     12 C12       -76.4918   28.8293  -70.7244 C.ar      11 UNK        -0.1021 
     13 C13       -77.0466   30.1097  -70.6622 C.ar      11 UNK        -0.0753 
     14 C14       -78.4238   30.2559  -70.4628 C.ar      11 UNK        -0.0933 
     15 C15       -76.1400   31.3227  -70.7969 C.3       11 UNK         0.0166 
     16 S16       -75.6484   31.5799  -72.5288 S.3       11 UNK        -0.2615 
     17 C17       -73.9742   32.2904  -72.3409 C.3       11 UNK        -0.0865 
     18 CA        -72.8308   31.2743  -72.6181 C.3       10 UNK         0.0862 
     19 C         -72.6123   30.2821  -71.4353 C.2       10 UNK         0.5551 
     20 N         -72.6376   28.9693  -71.6351 N.am      10 UNK        -0.7319 
     21 O         -72.4004   30.7188  -70.3067 O.2       10 UNK        -0.5018 
     22 N         -72.9863   30.6477  -73.9385 N.am      10 UNK        -0.4509 
     23 C         -72.0061   30.0943  -74.6578 C.2       10 UNK         0.4899 
     24 O         -70.8125   30.1220  -74.3506 O.2       10 UNK        -0.4839 
     25 CA        -72.4475   29.3912  -75.9514 C.3       9 UNK         0.0222 
     26 CB        -71.9424   30.1537  -77.1869 C.3       9 UNK        -0.1966 
     27 N         -72.0073   27.9966  -76.0307 N.am      9 UNK        -0.4218 
     28 C         -72.2001   27.0409  -75.1106 C.2       9 UNK         0.5020 
     29 O         -72.7395   27.2245  -74.0161 O.2       9 UNK        -0.5274 
     30 CA        -71.7476   25.6270  -75.5183 C.3       8 UNK         0.0270 
     31 CB        -71.8231   24.6217  -74.3535 C.3       8 UNK        -0.1976 
     32 N         -72.5583   25.1265  -76.6305 N.am      8 UNK        -0.4313 
     33 C         -72.3948   25.4501  -77.9204 C.2       8 UNK         0.5041 
     34 O         -71.5020   26.1971  -78.3251 O.2       8 UNK        -0.5577 
     35 CA        -73.4185   24.8794  -78.9130 C.3       7 UNK         0.0284 
     36 CB        -73.2857   23.3524  -79.0443 C.3       7 UNK        -0.1958 
     37 N         -74.7777   25.2283  -78.4997 N.am      7 UNK        -0.4454 
     38 C         -75.4039   26.3675  -78.8305 C.2       7 UNK         0.5089 
     39 O         -74.9498   27.1962  -79.6198 O.2       7 UNK        -0.5125 
     40 CA        -76.7615   26.6424  -78.1541 C.3       6 UNK         0.0408 
     41 CB        -77.9205   26.1217  -79.0172 C.3       6 UNK        -0.1791 
     42 N         -76.8511   26.0588  -76.8147 N.am      6 UNK        -0.4762 
     43 C         -76.1223   26.4603  -75.7636 C.2       6 UNK         0.5007 
     44 O         -75.4016   27.4551  -75.7848 O.2       6 UNK        -0.5032 
     45 CA        -76.2056   25.6100  -74.4805 C.3       5 UNK         0.0783 
     46 C46       -77.1605   26.2871  -73.4719 C.3       11 UNK        -0.0857 
     47 S47       -77.4624   25.2962  -71.9677 S.3       11 UNK        -0.2512 
     48 C48       -76.6815   26.3084  -70.6703 C.3       11 UNK         0.0225 
     49 N         -76.5877   24.2199  -74.7560 N.am      5 UNK        -0.4615 
     50 C         -75.8266   23.3087  -75.3725 C.2       4 UNK         0.5053 
     51 O         -74.7087   23.5482  -75.8252 O.2       4 UNK        -0.5105 
     52 CA        -76.4310   21.9053  -75.5416 C.3       4 UNK         0.0263 
     53 CB        -76.2378   21.0793  -74.2602 C.3       4 UNK        -0.1981 
     54 N         -77.8540   21.9528  -75.8878 N.am      4 UNK        -0.4224 
     55 C         -78.3238   22.3655  -77.0740 C.2       3 UNK         0.4895 
     56 O         -77.6039   22.6594  -78.0283 O.2       3 UNK        -0.5091 
     57 CA        -79.8518   22.5140  -77.2086 C.3       3 UNK         0.0250 
     58 CB        -80.4815   21.1931  -77.6789 C.3       3 UNK        -0.1996 
     59 N         -80.5271   22.9725  -75.9854 N.am      3 UNK        -0.4254 
     60 C         -80.2614   24.1255  -75.3548 C.2       2 UNK         0.5004 
     61 O         -79.3820   24.9072  -75.7234 O.2       2 UNK        -0.5226 
     62 CA        -81.0789   24.4276  -74.0822 C.3       2 UNK         0.0269 
     63 CB        -80.7304   23.4349  -72.9592 C.3       2 UNK        -0.1926 
     64 N         -80.8297   25.7897  -73.5986 N.am      2 UNK        -0.4687 
     65 C         -81.3055   26.8933  -74.1899 C.2       1 UNK         0.5165 
     66 O         -82.1594   26.8767  -75.0822 O.2       1 UNK        -0.5079 
     67 H67       -78.8381   30.2852  -73.2505 H         1 UNK         0.0900 
     68 H68       -77.6964   29.2765  -74.1557 H         1 UNK         0.0900 
     69 H69       -77.8434   30.9945  -74.5102 H         1 UNK         0.0900 
     70 H70       -81.1706   28.7783  -75.6919 H         1 UNK         0.2959 
     71 H71       -79.7542   28.0447  -73.2556 H         1 UNK         0.1079 
     72 H72       -82.6248   29.1332  -73.1758 H         1 UNK         0.0837 
     73 H73       -81.2440   30.0299  -72.6202 H         1 UNK         0.0837 
     74 H74       -81.0477   30.3325  -70.1996 H         1 UNK         0.0685 
     75 H75       -80.9424   29.0493  -69.0210 H         1 UNK         0.0685 
     76 H76       -79.2881   26.9811  -70.2152 H         1 UNK         0.1434 
     77 H77       -75.4293   28.7187  -70.8941 H         1 UNK         0.1329 
     78 H78       -78.8553   31.2466  -70.4184 H         1 UNK         0.1335 
     79 H79       -76.6319   32.2229  -70.4253 H         1 UNK         0.0680 
     80 H80       -75.2585   31.1728  -70.1722 H         1 UNK         0.0680 
     81 H81       -73.8924   33.1163  -73.0490 H         1 UNK         0.1032 
     82 H82       -73.8652   32.7509  -71.3570 H         1 UNK         0.1032 
     83 H83       -71.9089   31.8576  -72.6584 H         1 UNK         0.0461 
     84 H84       -72.7699   28.5740  -72.5610 H         1 UNK         0.3453 
     85 H85       -72.4784   28.3551  -70.8536 H         1 UNK         0.3453 
     86 H86       -73.9411   30.5479  -74.2530 H         1 UNK         0.2984 
     87 H87       -73.5383   29.3801  -75.9886 H         1 UNK         0.0554 
     88 H88       -72.3209   29.7116  -78.1090 H         1 UNK         0.0847 
     89 H89       -70.8528   30.1595  -77.2389 H         1 UNK         0.0847 
     90 H90       -72.2735   31.1929  -77.1672 H         1 UNK         0.0847 
     91 H91       -71.5963   27.6993  -76.9097 H         1 UNK         0.3141 
     92 H92       -70.7046   25.6908  -75.8358 H         1 UNK         0.0743 
     93 H93       -72.8427   24.5040  -73.9846 H         1 UNK         0.0784 
     94 H94       -71.4620   23.6383  -74.6548 H         1 UNK         0.0784 
     95 H95       -71.2088   24.9508  -73.5145 H         1 UNK         0.0784 
     96 H96       -73.3419   24.5257  -76.3733 H         1 UNK         0.3213 
     97 H97       -73.2140   25.3153  -79.8935 H         1 UNK         0.0855 
     98 H98       -73.4892   22.8363  -78.1058 H         1 UNK         0.0814 
     99 H99       -72.2774   23.0761  -79.3554 H         1 UNK         0.0814 
    100 H100      -73.9739   22.9610  -79.7936 H         1 UNK         0.0814 
    101 H101      -75.2197   24.6197  -77.8233 H         1 UNK         0.3105 
    102 H102      -76.8721   27.7244  -78.0555 H         1 UNK         0.0547 
    103 H103      -77.9198   26.6002  -79.9973 H         1 UNK         0.0837 
    104 H104      -77.8521   25.0463  -79.1812 H         1 UNK         0.0837 
    105 H105      -78.8855   26.3299  -78.5542 H         1 UNK         0.0837 
    106 H106      -77.5117   25.3014  -76.6765 H         1 UNK         0.3020 
    107 H107      -75.2037   25.5973  -74.0444 H         1 UNK         0.1245 
    108 H108      -78.1262   26.4760  -73.9394 H         1 UNK         0.0781 
    109 H109      -76.7647   27.2650  -73.1948 H         1 UNK         0.0781 
    110 H110      -75.6096   26.3658  -70.8674 H         1 UNK         0.0836 
    111 H111      -76.7928   25.8031  -69.7102 H         1 UNK         0.0836 
    112 H112      -77.5155   23.9593  -74.4576 H         1 UNK         0.3022 
    113 H113      -75.8951   21.4077  -76.3530 H         1 UNK         0.0747 
    114 H114      -76.5991   20.0587  -74.3880 H         1 UNK         0.0793 
    115 H115      -75.1815   21.0163  -73.9941 H         1 UNK         0.0793 
    116 H116      -76.7618   21.5179  -73.4098 H         1 UNK         0.0793 
    117 H117      -78.5157   21.7134  -75.1641 H         1 UNK         0.3047 
    118 H118      -80.0315   23.2686  -77.9776 H         1 UNK         0.0822 
    119 H119      -80.3704   20.4035  -76.9346 H         1 UNK         0.0807 
    120 H120      -80.0110   20.8423  -78.5987 H         1 UNK         0.0807 
    121 H121      -81.5449   21.3118  -77.8877 H         1 UNK         0.0807 
    122 H122      -81.2571   22.3755  -75.6231 H         1 UNK         0.2946 
    123 H123      -82.1392   24.3304  -74.3272 H         1 UNK         0.1144 
    124 H124      -81.2695   23.6707  -72.0414 H         1 UNK         0.0793 
    125 H125      -79.6647   23.4376  -72.7295 H         1 UNK         0.0793 
    126 H126      -81.0006   22.4145  -73.2329 H         1 UNK         0.0793 
    127 H127      -80.1302   25.8825  -72.8764 H         1 UNK         0.2896 
@<TRIPOS>BOND
     1    1    2 1    
     2    1   67 1    
     3    1   68 1    
     4    1   69 1    
     5    2    3 2    
     6    2    4 am   BACKBONE|DICT|INTERRES
     7    4    5 1    
     8    4   70 1    
     9    5    6 1    
    10    5   65 1    
    11    5   71 1    
    12    6    7 1    
    13    6   72 1    
    14    6   73 1    
    15    7    8 1    
    16    8    9 1    
    17    8   74 1    
    18    8   75 1    
    19    9   10 ar   
    20    9   14 ar   
    21   10   11 ar   
    22   10   76 1    
    23   11   12 ar   
    24   11   48 1    
    25   12   13 ar   
    26   12   77 1    
    27   13   14 ar   
    28   13   15 1    
    29   14   78 1    
    30   15   16 1    
    31   15   79 1    
    32   15   80 1    
    33   16   17 1    
    34   17   18 1    
    35   17   81 1    
    36   17   82 1    
    37   18   19 1    
    38   18   22 1    
    39   18   83 1    
    40   19   20 am   BACKBONE|DICT|INTERRES
    41   19   21 2    
    42   20   84 1    
    43   20   85 1    
    44   22   23 am   BACKBONE|DICT|INTERRES
    45   22   86 1    
    46   23   24 2    
    47   23   25 1    
    48   25   26 1    
    49   25   27 1    
    50   25   87 1    
    51   26   88 1    
    52   26   89 1    
    53   26   90 1    
    54   27   28 am   BACKBONE|DICT|INTERRES
    55   27   91 1    
    56   28   29 2    
    57   28   30 1    
    58   30   31 1    
    59   30   32 1    
    60   30   92 1    
    61   31   93 1    
    62   31   94 1    
    63   31   95 1    
    64   32   33 am   BACKBONE|DICT|INTERRES
    65   32   96 1    
    66   33   34 2    
    67   33   35 1    
    68   35   36 1    
    69   35   37 1    
    70   35   97 1    
    71   36   98 1    
    72   36   99 1    
    73   36  100 1    
    74   37   38 am   BACKBONE|DICT|INTERRES
    75   37  101 1    
    76   38   39 2    
    77   38   40 1    
    78   40   41 1    
    79   40   42 1    
    80   40  102 1    
    81   41  103 1    
    82   41  104 1    
    83   41  105 1    
    84   42   43 am   BACKBONE|DICT|INTERRES
    85   42  106 1    
    86   43   44 2    
    87   43   45 1    
    88   45   46 1    
    89   45   49 1    
    90   45  107 1    
    91   46   47 1    
    92   46  108 1    
    93   46  109 1    
    94   47   48 1    
    95   48  110 1    
    96   48  111 1    
    97   49   50 am   BACKBONE|DICT|INTERRES
    98   49  112 1    
    99   50   51 2    
   100   50   52 1    
   101   52   53 1    
   102   52   54 1    
   103   52  113 1    
   104   53  114 1    
   105   53  115 1    
   106   53  116 1    
   107   54   55 am   BACKBONE|DICT|INTERRES
   108   54  117 1    
   109   55   56 2    
   110   55   57 1    
   111   57   58 1    
   112   57   59 1    
   113   57  118 1    
   114   58  119 1    
   115   58  120 1    
   116   58  121 1    
   117   59   60 am   BACKBONE|DICT|INTERRES
   118   59  122 1    
   119   60   61 2    
   120   60   62 1    
   121   62   63 1    
   122   62   64 1    
   123   62  123 1    
   124   63  124 1    
   125   63  125 1    
   126   63  126 1    
   127   64   65 am   BACKBONE|DICT|INTERRES
   128   64  127 1    
   129   65   66 2    
@<TRIPOS>SUBSTRUCTURE
     1 UNK         1 GROUP             0       ****    0 ROOT    
