@<TRIPOS>MOLECULE
3R135
127   129    1
SMALL
USER_CHARGES


@<TRIPOS>ATOM
      1 CA        -85.1984   25.2724  -71.0658 C.3       0 UNK        -0.1998 
      2 C         -84.2781   26.1216  -71.9300 C.2       0 UNK         0.4909 
      3 O         -84.7514   27.0115  -72.6383 O.2       0 UNK        -0.5240 
      4 N         -82.9664   25.8614  -71.8693 N.am      1 UNK        -0.4739 
      5 CA        -81.9419   26.5441  -72.6667 C.3       1 UNK         0.0864 
      6 C6        -80.5158   26.2914  -72.1192 C.3       11 UNK        -0.0881 
      7 S7        -80.2929   26.7884  -70.3798 S.3       11 UNK        -0.2682 
      8 C8        -79.9085   28.5645  -70.5298 C.3       11 UNK         0.0289 
      9 C9        -78.6389   28.8493  -71.3253 C.ar      11 UNK        -0.0687 
     10 C10       -78.6915   29.6701  -72.4572 C.ar      11 UNK        -0.0823 
     11 C11       -77.5281   29.9850  -73.1675 C.ar      11 UNK        -0.0830 
     12 C12       -76.3047   29.4621  -72.7380 C.ar      11 UNK        -0.1021 
     13 C13       -76.2395   28.6304  -71.6170 C.ar      11 UNK        -0.0753 
     14 C14       -77.4078   28.3307  -70.9106 C.ar      11 UNK        -0.0933 
     15 C15       -74.8986   28.0757  -71.1693 C.3       11 UNK         0.0166 
     16 S16       -73.9953   29.3078  -70.1820 S.3       11 UNK        -0.2615 
     17 C17       -72.2636   28.8111  -70.4719 C.3       11 UNK        -0.0865 
     18 CA        -71.5587   29.7327  -71.5016 C.3       10 UNK         0.0862 
     19 C         -70.0346   29.4387  -71.5469 C.2       10 UNK         0.5551 
     20 N         -69.2484   30.1214  -70.7262 N.am      10 UNK        -0.7319 
     21 O         -69.5672   28.5718  -72.2833 O.2       10 UNK        -0.5018 
     22 N         -72.1785   29.6219  -72.8282 N.am      10 UNK        -0.4509 
     23 C         -71.9752   30.4495  -73.8572 C.2       10 UNK         0.4899 
     24 O         -71.3131   31.4863  -73.7856 O.2       10 UNK        -0.4839 
     25 CA        -72.6047   30.0179  -75.1972 C.3       9 UNK         0.0222 
     26 CB        -72.4988   31.1029  -76.2842 C.3       9 UNK        -0.1966 
     27 N         -72.0030   28.7770  -75.6963 N.am      9 UNK        -0.4218 
     28 C         -72.2738   27.5537  -75.2246 C.2       9 UNK         0.5020 
     29 O         -73.0695   27.3425  -74.3084 O.2       9 UNK        -0.5274 
     30 CA        -71.4948   26.3827  -75.8293 C.3       8 UNK         0.0270 
     31 CB        -70.4557   25.8491  -74.8241 C.3       8 UNK        -0.1976 
     32 N         -72.4319   25.3284  -76.2136 N.am      8 UNK        -0.4313 
     33 C         -72.1619   24.3469  -77.0845 C.2       8 UNK         0.5041 
     34 O         -71.0612   24.1869  -77.6152 O.2       8 UNK        -0.5577 
     35 CA        -73.3137   23.3991  -77.4605 C.3       7 UNK         0.0284 
     36 CB        -73.6401   22.4190  -76.3210 C.3       7 UNK        -0.1958 
     37 N         -74.5128   24.1385  -77.8579 N.am      7 UNK        -0.4454 
     38 C         -74.6466   24.7818  -79.0275 C.2       7 UNK         0.5089 
     39 O         -73.8143   24.7354  -79.9341 O.2       7 UNK        -0.5125 
     40 CA        -75.9143   25.6334  -79.2248 C.3       6 UNK         0.0408 
     41 CB        -77.0358   24.7994  -79.8633 C.3       6 UNK        -0.1791 
     42 N         -76.4023   26.2357  -77.9838 N.am      6 UNK        -0.4762 
     43 C         -75.7454   27.1601  -77.2675 C.2       6 UNK         0.5007 
     44 O         -74.6798   27.6675  -77.6170 O.2       6 UNK        -0.5032 
     45 CA        -76.3769   27.5510  -75.9164 C.3       5 UNK         0.0783 
     46 C46       -77.4348   28.6735  -76.0914 C.3       11 UNK        -0.0857 
     47 S47       -76.6979   30.3212  -75.8393 S.3       11 UNK        -0.2512 
     48 C48       -77.6026   30.9217  -74.3714 C.3       11 UNK         0.0225 
     49 N         -76.9264   26.3919  -75.2065 N.am      5 UNK        -0.4615 
     50 C         -76.2118   25.3468  -74.7661 C.2       4 UNK         0.5053 
     51 O         -75.0006   25.2229  -74.9240 O.2       4 UNK        -0.5105 
     52 CA        -76.9971   24.2139  -74.0901 C.3       4 UNK         0.0263 
     53 CB        -77.2806   24.5582  -72.6190 C.3       4 UNK        -0.1981 
     54 N         -78.2444   23.9192  -74.8014 N.am      4 UNK        -0.4224 
     55 C         -78.2892   23.4000  -76.0384 C.2       3 UNK         0.4895 
     56 O         -77.2930   23.0485  -76.6707 O.2       3 UNK        -0.5091 
     57 CA        -79.6736   23.2994  -76.6981 C.3       3 UNK         0.0250 
     58 CB        -80.4016   22.0243  -76.2446 C.3       3 UNK        -0.1996 
     59 N         -80.5227   24.4669  -76.4429 N.am      3 UNK        -0.4254 
     60 C         -80.2621   25.7188  -76.8411 C.2       2 UNK         0.5004 
     61 O         -79.2395   26.0426  -77.4436 O.2       2 UNK        -0.5226 
     62 CA        -81.2945   26.8016  -76.4803 C.3       2 UNK         0.0269 
     63 CB        -82.6316   26.5830  -77.2167 C.3       2 UNK        -0.1926 
     64 N         -81.4860   26.9779  -75.0321 N.am      2 UNK        -0.4687 
     65 C         -82.0006   26.1114  -74.1461 C.2       1 UNK         0.5165 
     66 O         -82.4330   24.9943  -74.4448 O.2       1 UNK        -0.5079 
     67 H67       -85.7554   25.9055  -70.3757 H         1 UNK         0.0900 
     68 H68       -85.9129   24.7385  -71.6919 H         1 UNK         0.0900 
     69 H69       -84.6451   24.5379  -70.4808 H         1 UNK         0.0900 
     70 H70       -82.6317   25.1162  -71.2757 H         1 UNK         0.2959 
     71 H71       -82.1468   27.6163  -72.6230 H         1 UNK         0.1079 
     72 H72       -80.2726   25.2290  -72.1836 H         1 UNK         0.0837 
     73 H73       -79.7711   26.8067  -72.7278 H         1 UNK         0.0837 
     74 H74       -80.7678   29.0723  -70.9705 H         1 UNK         0.0685 
     75 H75       -79.7920   28.9800  -69.5281 H         1 UNK         0.0685 
     76 H76       -79.6391   30.0849  -72.7728 H         1 UNK         0.1434 
     77 H77       -75.3970   29.7083  -73.2710 H         1 UNK         0.1329 
     78 H78       -77.3603   27.7008  -70.0328 H         1 UNK         0.1335 
     79 H79       -75.0305   27.1654  -70.5826 H         1 UNK         0.0680 
     80 H80       -74.3183   27.7935  -72.0473 H         1 UNK         0.0680 
     81 H81       -71.7513   28.8573  -69.5088 H         1 UNK         0.1032 
     82 H82       -72.2164   27.7662  -70.7853 H         1 UNK         0.1032 
     83 H83       -71.6865   30.7663  -71.1727 H         1 UNK         0.0461 
     84 H84       -69.6230   30.8280  -70.1119 H         1 UNK         0.3453 
     85 H85       -68.2578   29.9345  -70.7285 H         1 UNK         0.3453 
     86 H86       -72.6628   28.7524  -73.0291 H         1 UNK         0.2984 
     87 H87       -73.6671   29.8417  -75.0171 H         1 UNK         0.0554 
     88 H88       -72.9614   32.0331  -75.9514 H         1 UNK         0.0847 
     89 H89       -73.0122   30.7981  -77.1966 H         1 UNK         0.0847 
     90 H90       -71.4618   31.3257  -76.5380 H         1 UNK         0.0847 
     91 H91       -71.3082   28.8755  -76.4226 H         1 UNK         0.3141 
     92 H92       -70.9773   26.7315  -76.7255 H         1 UNK         0.0743 
     93 H93       -70.9347   25.4446  -73.9314 H         1 UNK         0.0784 
     94 H94       -69.8408   25.0621  -75.2604 H         1 UNK         0.0784 
     95 H95       -69.7820   26.6437  -74.4999 H         1 UNK         0.0784 
     96 H96       -73.3597   25.3927  -75.7903 H         1 UNK         0.3213 
     97 H97       -72.9866   22.8049  -78.3168 H         1 UNK         0.0855 
     98 H98       -73.9405   22.9304  -75.4075 H         1 UNK         0.0814 
     99 H99       -72.7699   21.8085  -76.0768 H         1 UNK         0.0814 
    100 H100      -74.4451   21.7396  -76.6020 H         1 UNK         0.0814 
    101 H101      -75.2553   24.2166  -77.1743 H         1 UNK         0.3105 
    102 H102      -75.6637   26.4459  -79.9100 H         1 UNK         0.0547 
    103 H103      -76.7136   24.3774  -80.8161 H         1 UNK         0.0837 
    104 H104      -77.3358   23.9689  -79.2241 H         1 UNK         0.0837 
    105 H105      -77.9200   25.4063  -80.0590 H         1 UNK         0.0837 
    106 H106      -77.3190   25.9374  -77.6592 H         1 UNK         0.3020 
    107 H107      -75.5625   27.9181  -75.2867 H         1 UNK         0.1245 
    108 H108      -78.2532   28.5469  -75.3819 H         1 UNK         0.0781 
    109 H109      -77.9114   28.6438  -77.0737 H         1 UNK         0.0781 
    110 H110      -78.6403   31.0982  -74.6587 H         1 UNK         0.0836 
    111 H111      -77.1961   31.8921  -74.0837 H         1 UNK         0.0836 
    112 H112      -77.9256   26.3773  -75.0810 H         1 UNK         0.3022 
    113 H113      -76.3782   23.3140  -74.1144 H         1 UNK         0.0747 
    114 H114      -77.8809   23.7890  -72.1330 H         1 UNK         0.0793 
    115 H115      -76.3477   24.6413  -72.0596 H         1 UNK         0.0793 
    116 H116      -77.7961   25.5120  -72.5133 H         1 UNK         0.0793 
    117 H117      -79.1123   24.1589  -74.3468 H         1 UNK         0.3047 
    118 H118      -79.5164   23.2373  -77.7771 H         1 UNK         0.0822 
    119 H119      -81.3400   21.8918  -76.7836 H         1 UNK         0.0807 
    120 H120      -80.6284   22.0440  -75.1779 H         1 UNK         0.0807 
    121 H121      -79.7931   21.1387  -76.4339 H         1 UNK         0.0807 
    122 H122      -81.3626   24.3241  -75.8882 H         1 UNK         0.2946 
    123 H123      -80.8830   27.7455  -76.8433 H         1 UNK         0.1144 
    124 H124      -83.3239   27.4035  -77.0279 H         1 UNK         0.0793 
    125 H125      -83.1247   25.6571  -76.9200 H         1 UNK         0.0793 
    126 H126      -82.4763   26.5335  -78.2954 H         1 UNK         0.0793 
    127 H127      -81.1473   27.8603  -74.6741 H         1 UNK         0.2896 
@<TRIPOS>BOND
     1    1    2 1    
     2    1   67 1    
     3    1   68 1    
     4    1   69 1    
     5    2    3 2    
     6    2    4 am   BACKBONE|DICT|INTERRES
     7    4    5 1    
     8    4   70 1    
     9    5    6 1    
    10    5   65 1    
    11    5   71 1    
    12    6    7 1    
    13    6   72 1    
    14    6   73 1    
    15    7    8 1    
    16    8    9 1    
    17    8   74 1    
    18    8   75 1    
    19    9   10 ar   
    20    9   14 ar   
    21   10   11 ar   
    22   10   76 1    
    23   11   12 ar   
    24   11   48 1    
    25   12   13 ar   
    26   12   77 1    
    27   13   14 ar   
    28   13   15 1    
    29   14   78 1    
    30   15   16 1    
    31   15   79 1    
    32   15   80 1    
    33   16   17 1    
    34   17   18 1    
    35   17   81 1    
    36   17   82 1    
    37   18   19 1    
    38   18   22 1    
    39   18   83 1    
    40   19   20 am   BACKBONE|DICT|INTERRES
    41   19   21 2    
    42   20   84 1    
    43   20   85 1    
    44   22   23 am   BACKBONE|DICT|INTERRES
    45   22   86 1    
    46   23   24 2    
    47   23   25 1    
    48   25   26 1    
    49   25   27 1    
    50   25   87 1    
    51   26   88 1    
    52   26   89 1    
    53   26   90 1    
    54   27   28 am   BACKBONE|DICT|INTERRES
    55   27   91 1    
    56   28   29 2    
    57   28   30 1    
    58   30   31 1    
    59   30   32 1    
    60   30   92 1    
    61   31   93 1    
    62   31   94 1    
    63   31   95 1    
    64   32   33 am   BACKBONE|DICT|INTERRES
    65   32   96 1    
    66   33   34 2    
    67   33   35 1    
    68   35   36 1    
    69   35   37 1    
    70   35   97 1    
    71   36   98 1    
    72   36   99 1    
    73   36  100 1    
    74   37   38 am   BACKBONE|DICT|INTERRES
    75   37  101 1    
    76   38   39 2    
    77   38   40 1    
    78   40   41 1    
    79   40   42 1    
    80   40  102 1    
    81   41  103 1    
    82   41  104 1    
    83   41  105 1    
    84   42   43 am   BACKBONE|DICT|INTERRES
    85   42  106 1    
    86   43   44 2    
    87   43   45 1    
    88   45   46 1    
    89   45   49 1    
    90   45  107 1    
    91   46   47 1    
    92   46  108 1    
    93   46  109 1    
    94   47   48 1    
    95   48  110 1    
    96   48  111 1    
    97   49   50 am   BACKBONE|DICT|INTERRES
    98   49  112 1    
    99   50   51 2    
   100   50   52 1    
   101   52   53 1    
   102   52   54 1    
   103   52  113 1    
   104   53  114 1    
   105   53  115 1    
   106   53  116 1    
   107   54   55 am   BACKBONE|DICT|INTERRES
   108   54  117 1    
   109   55   56 2    
   110   55   57 1    
   111   57   58 1    
   112   57   59 1    
   113   57  118 1    
   114   58  119 1    
   115   58  120 1    
   116   58  121 1    
   117   59   60 am   BACKBONE|DICT|INTERRES
   118   59  122 1    
   119   60   61 2    
   120   60   62 1    
   121   62   63 1    
   122   62   64 1    
   123   62  123 1    
   124   63  124 1    
   125   63  125 1    
   126   63  126 1    
   127   64   65 am   BACKBONE|DICT|INTERRES
   128   64  127 1    
   129   65   66 2    
@<TRIPOS>SUBSTRUCTURE
     1 UNK         1 GROUP             0       ****    0 ROOT    
