@<TRIPOS>MOLECULE
3R135
127   129    1
SMALL
USER_CHARGES


@<TRIPOS>ATOM
      1 CA        -84.3233   31.2635  -74.9516 C.3       0 UNK        -0.1998 
      2 C         -82.9466   30.6636  -75.1958 C.2       0 UNK         0.4909 
      3 O         -82.0418   31.3696  -75.6429 O.2       0 UNK        -0.5240 
      4 N         -82.7832   29.3687  -74.9089 N.am      1 UNK        -0.4739 
      5 CA        -81.5364   28.6243  -75.0793 C.3       1 UNK         0.0864 
      6 C6        -80.4845   28.8905  -73.9627 C.3       11 UNK        -0.0881 
      7 S7        -81.1029   28.7022  -72.2547 S.3       11 UNK        -0.2682 
      8 C8        -79.7851   29.5475  -71.3253 C.3       11 UNK         0.0289 
      9 C9        -78.4828   28.7592  -71.3438 C.ar      11 UNK        -0.0687 
     10 C10       -78.3794   27.5748  -70.6084 C.ar      11 UNK        -0.0823 
     11 C11       -77.1901   26.8410  -70.6000 C.ar      11 UNK        -0.0830 
     12 C12       -76.0938   27.3133  -71.3280 C.ar      11 UNK        -0.1021 
     13 C13       -76.1839   28.4912  -72.0734 C.ar      11 UNK        -0.0753 
     14 C14       -77.3818   29.2131  -72.0790 C.ar      11 UNK        -0.0933 
     15 C15       -74.9835   28.9579  -72.8807 C.3       11 UNK         0.0166 
     16 S16       -73.6636   29.5952  -71.7982 S.3       11 UNK        -0.2615 
     17 C17       -73.5695   31.3537  -72.2914 C.3       11 UNK        -0.0865 
     18 CA        -72.4055   31.6522  -73.2751 C.3       10 UNK         0.0862 
     19 C         -71.0143   31.6384  -72.5708 C.2       10 UNK         0.5551 
     20 N         -70.0699   30.7872  -72.9571 N.am      10 UNK        -0.7319 
     21 O         -70.7840   32.4320  -71.6615 O.2       10 UNK        -0.5018 
     22 N         -72.4990   30.8092  -74.4745 N.am      10 UNK        -0.4509 
     23 C         -71.9351   31.0718  -75.6579 C.2       10 UNK         0.4899 
     24 O         -71.3591   32.1284  -75.9221 O.2       10 UNK        -0.4839 
     25 CA        -72.0366   29.9576  -76.7188 C.3       9 UNK         0.0222 
     26 CB        -70.9397   30.0647  -77.7991 C.3       9 UNK        -0.1966 
     27 N         -72.0737   28.5989  -76.1555 N.am      9 UNK        -0.4218 
     28 C         -71.1352   28.0034  -75.3979 C.2       9 UNK         0.5020 
     29 O         -70.1232   28.5801  -74.9964 O.2       9 UNK        -0.5274 
     30 CA        -71.3515   26.5286  -74.9934 C.3       8 UNK         0.0270 
     31 CB        -71.6211   26.4179  -73.4834 C.3       8 UNK        -0.1976 
     32 N         -72.4309   25.8586  -75.7265 N.am      8 UNK        -0.4313 
     33 C         -72.3854   25.5373  -77.0299 C.2       8 UNK         0.5041 
     34 O         -71.3710   25.6512  -77.7188 O.2       8 UNK        -0.5577 
     35 CA        -73.6859   25.0459  -77.7018 C.3       7 UNK         0.0284 
     36 CB        -73.6544   23.5187  -77.8751 C.3       7 UNK        -0.1958 
     37 N         -74.9200   25.4128  -77.0008 N.am      7 UNK        -0.4454 
     38 C         -75.3012   26.6467  -76.6398 C.2       7 UNK         0.5089 
     39 O         -74.6895   27.6712  -76.9421 O.2       7 UNK        -0.5125 
     40 CA        -76.5300   26.7485  -75.7202 C.3       6 UNK         0.0408 
     41 CB        -77.7830   27.0523  -76.5538 C.3       6 UNK        -0.1791 
     42 N         -76.7663   25.5521  -74.9020 N.am      6 UNK        -0.4762 
     43 C         -75.9023   24.9757  -74.0491 C.2       6 UNK         0.5007 
     44 O         -74.7574   25.3886  -73.8582 O.2       6 UNK        -0.5032 
     45 CA        -76.3684   23.6757  -73.3653 C.3       5 UNK         0.0783 
     46 C46       -77.2380   23.9375  -72.1098 C.3       11 UNK        -0.0857 
     47 S47       -76.2163   24.1993  -70.6222 S.3       11 UNK        -0.2512 
     48 C48       -77.1028   25.5554  -69.7827 C.3       11 UNK         0.0225 
     49 N         -77.0760   22.8303  -74.3275 N.am      5 UNK        -0.4615 
     50 C         -76.5139   21.8500  -75.0446 C.2       4 UNK         0.5053 
     51 O         -75.3304   21.5253  -74.9507 O.2       4 UNK        -0.5105 
     52 CA        -77.4202   21.0911  -76.0317 C.3       4 UNK         0.0263 
     53 CB        -77.9543   19.8036  -75.3837 C.3       4 UNK        -0.1981 
     54 N         -78.5491   21.8828  -76.5290 N.am      4 UNK        -0.4224 
     55 C         -78.4319   22.9386  -77.3453 C.2       3 UNK         0.4895 
     56 O         -77.3566   23.3624  -77.7706 O.2       3 UNK        -0.5091 
     57 CA        -79.7341   23.6649  -77.7294 C.3       3 UNK         0.0250 
     58 CB        -80.4217   22.9418  -78.8990 C.3       3 UNK        -0.1996 
     59 N         -80.7083   23.8748  -76.6459 N.am      3 UNK        -0.4254 
     60 C         -80.4462   24.3634  -75.4250 C.2       2 UNK         0.5004 
     61 O         -79.3140   24.5232  -74.9705 O.2       2 UNK        -0.5226 
     62 CA        -81.6390   24.8026  -74.5665 C.3       2 UNK         0.0269 
     63 CB        -81.6046   24.1235  -73.1867 C.3       2 UNK        -0.1926 
     64 N         -81.5717   26.2543  -74.3909 N.am      2 UNK        -0.4687 
     65 C         -81.8820   27.1475  -75.3393 C.2       1 UNK         0.5165 
     66 O         -82.4210   26.8402  -76.4043 O.2       1 UNK        -0.5079 
     67 H67       -84.2528   32.0853  -74.2395 H         1 UNK         0.0900 
     68 H68       -85.0234   30.5294  -74.5531 H         1 UNK         0.0900 
     69 H69       -84.7337   31.6531  -75.8828 H         1 UNK         0.0900 
     70 H70       -83.5638   28.8237  -74.5681 H         1 UNK         0.2959 
     71 H71       -81.0827   28.9576  -76.0159 H         1 UNK         0.1079 
     72 H72       -80.1156   29.9116  -74.0714 H         1 UNK         0.0837 
     73 H73       -79.6074   28.2542  -74.0910 H         1 UNK         0.0837 
     74 H74       -79.6415   30.5522  -71.7259 H         1 UNK         0.0685 
     75 H75       -80.1109   29.6757  -70.2921 H         1 UNK         0.0685 
     76 H76       -79.2330   27.2265  -70.0426 H         1 UNK         0.1434 
     77 H77       -75.1643   26.7601  -71.3259 H         1 UNK         0.1329 
     78 H78       -77.4567   30.1266  -72.6525 H         1 UNK         0.1335 
     79 H79       -75.2810   29.7022  -73.6202 H         1 UNK         0.0680 
     80 H80       -74.5893   28.1156  -73.4497 H         1 UNK         0.0680 
     81 H81       -73.4736   31.9597  -71.3884 H         1 UNK         0.1032 
     82 H82       -74.5166   31.6628  -72.7352 H         1 UNK         0.1032 
     83 H83       -72.5402   32.6836  -73.6067 H         1 UNK         0.0461 
     84 H84       -70.2322   30.1240  -73.7071 H         1 UNK         0.3453 
     85 H85       -69.1774   30.8019  -72.4907 H         1 UNK         0.3453 
     86 H86       -72.9191   29.9030  -74.3359 H         1 UNK         0.2984 
     87 H87       -72.9985   30.1015  -77.2127 H         1 UNK         0.0554 
     88 H88       -71.0418   29.2782  -78.5469 H         1 UNK         0.0847 
     89 H89       -69.9404   29.9902  -77.3686 H         1 UNK         0.0847 
     90 H90       -70.9969   31.0186  -78.3248 H         1 UNK         0.0847 
     91 H91       -72.9022   28.0636  -76.4062 H         1 UNK         0.3141 
     92 H92       -70.4211   25.9996  -75.2098 H         1 UNK         0.0743 
     93 H93       -72.5382   26.9318  -73.1966 H         1 UNK         0.0784 
     94 H94       -71.7114   25.3773  -73.1712 H         1 UNK         0.0784 
     95 H95       -70.8080   26.8598  -72.9057 H         1 UNK         0.0784 
     96 H96       -73.2949   25.7040  -75.2132 H         1 UNK         0.3213 
     97 H97       -73.7289   25.5057  -78.6911 H         1 UNK         0.0855 
     98 H98       -73.6452   23.0046  -76.9129 H         1 UNK         0.0814 
     99 H99       -72.7646   23.2043  -78.4226 H         1 UNK         0.0814 
    100 H100      -74.5201   23.1642  -78.4354 H         1 UNK         0.0814 
    101 H101      -75.5286   24.6494  -76.7358 H         1 UNK         0.3105 
    102 H102      -76.3670   27.5809  -75.0351 H         1 UNK         0.0547 
    103 H103      -77.9606   26.2789  -77.3004 H         1 UNK         0.0837 
    104 H104      -78.6725   27.1248  -75.9306 H         1 UNK         0.0837 
    105 H105      -77.6779   27.9994  -77.0845 H         1 UNK         0.0837 
    106 H106      -77.6983   25.1430  -74.9761 H         1 UNK         0.3020 
    107 H107      -75.4655   23.1485  -73.0469 H         1 UNK         0.1245 
    108 H108      -77.9300   24.7673  -72.2674 H         1 UNK         0.0781 
    109 H109      -77.8663   23.0702  -71.9001 H         1 UNK         0.0781 
    110 H110      -78.0998   25.1998  -69.5179 H         1 UNK         0.0836 
    111 H111      -76.5945   25.7758  -68.8433 H         1 UNK         0.0836 
    112 H112      -78.0369   23.0919  -74.5218 H         1 UNK         0.3022 
    113 H113      -76.8037   20.8115  -76.8889 H         1 UNK         0.0747 
    114 H114      -78.5282   19.2091  -76.0949 H         1 UNK         0.0793 
    115 H115      -77.1351   19.1770  -75.0279 H         1 UNK         0.0793 
    116 H116      -78.5959   20.0178  -74.5278 H         1 UNK         0.0793 
    117 H117      -79.4722   21.6148  -76.2198 H         1 UNK         0.3047 
    118 H118      -79.4483   24.6570  -78.0816 H         1 UNK         0.0822 
    119 H119      -81.2585   23.5219  -79.2887 H         1 UNK         0.0807 
    120 H120      -80.8005   21.9628  -78.6030 H         1 UNK         0.0807 
    121 H121      -79.7274   22.7863  -79.7263 H         1 UNK         0.0807 
    122 H122      -81.6779   23.7866  -76.9150 H         1 UNK         0.2946 
    123 H123      -82.5739   24.5375  -75.0656 H         1 UNK         0.1144 
    124 H124      -82.4569   24.4242  -72.5772 H         1 UNK         0.0793 
    125 H125      -80.6964   24.3688  -72.6339 H         1 UNK         0.0793 
    126 H126      -81.6431   23.0379  -73.2853 H         1 UNK         0.0793 
    127 H127      -81.1367   26.5924  -73.5425 H         1 UNK         0.2896 
@<TRIPOS>BOND
     1    1    2 1    
     2    1   67 1    
     3    1   68 1    
     4    1   69 1    
     5    2    3 2    
     6    2    4 am   BACKBONE|DICT|INTERRES
     7    4    5 1    
     8    4   70 1    
     9    5    6 1    
    10    5   65 1    
    11    5   71 1    
    12    6    7 1    
    13    6   72 1    
    14    6   73 1    
    15    7    8 1    
    16    8    9 1    
    17    8   74 1    
    18    8   75 1    
    19    9   10 ar   
    20    9   14 ar   
    21   10   11 ar   
    22   10   76 1    
    23   11   12 ar   
    24   11   48 1    
    25   12   13 ar   
    26   12   77 1    
    27   13   14 ar   
    28   13   15 1    
    29   14   78 1    
    30   15   16 1    
    31   15   79 1    
    32   15   80 1    
    33   16   17 1    
    34   17   18 1    
    35   17   81 1    
    36   17   82 1    
    37   18   19 1    
    38   18   22 1    
    39   18   83 1    
    40   19   20 am   BACKBONE|DICT|INTERRES
    41   19   21 2    
    42   20   84 1    
    43   20   85 1    
    44   22   23 am   BACKBONE|DICT|INTERRES
    45   22   86 1    
    46   23   24 2    
    47   23   25 1    
    48   25   26 1    
    49   25   27 1    
    50   25   87 1    
    51   26   88 1    
    52   26   89 1    
    53   26   90 1    
    54   27   28 am   BACKBONE|DICT|INTERRES
    55   27   91 1    
    56   28   29 2    
    57   28   30 1    
    58   30   31 1    
    59   30   32 1    
    60   30   92 1    
    61   31   93 1    
    62   31   94 1    
    63   31   95 1    
    64   32   33 am   BACKBONE|DICT|INTERRES
    65   32   96 1    
    66   33   34 2    
    67   33   35 1    
    68   35   36 1    
    69   35   37 1    
    70   35   97 1    
    71   36   98 1    
    72   36   99 1    
    73   36  100 1    
    74   37   38 am   BACKBONE|DICT|INTERRES
    75   37  101 1    
    76   38   39 2    
    77   38   40 1    
    78   40   41 1    
    79   40   42 1    
    80   40  102 1    
    81   41  103 1    
    82   41  104 1    
    83   41  105 1    
    84   42   43 am   BACKBONE|DICT|INTERRES
    85   42  106 1    
    86   43   44 2    
    87   43   45 1    
    88   45   46 1    
    89   45   49 1    
    90   45  107 1    
    91   46   47 1    
    92   46  108 1    
    93   46  109 1    
    94   47   48 1    
    95   48  110 1    
    96   48  111 1    
    97   49   50 am   BACKBONE|DICT|INTERRES
    98   49  112 1    
    99   50   51 2    
   100   50   52 1    
   101   52   53 1    
   102   52   54 1    
   103   52  113 1    
   104   53  114 1    
   105   53  115 1    
   106   53  116 1    
   107   54   55 am   BACKBONE|DICT|INTERRES
   108   54  117 1    
   109   55   56 2    
   110   55   57 1    
   111   57   58 1    
   112   57   59 1    
   113   57  118 1    
   114   58  119 1    
   115   58  120 1    
   116   58  121 1    
   117   59   60 am   BACKBONE|DICT|INTERRES
   118   59  122 1    
   119   60   61 2    
   120   60   62 1    
   121   62   63 1    
   122   62   64 1    
   123   62  123 1    
   124   63  124 1    
   125   63  125 1    
   126   63  126 1    
   127   64   65 am   BACKBONE|DICT|INTERRES
   128   64  127 1    
   129   65   66 2    
@<TRIPOS>SUBSTRUCTURE
     1 UNK         1 GROUP             0       ****    0 ROOT    
