@<TRIPOS>MOLECULE
3R135
127   129    1
SMALL
USER_CHARGES


@<TRIPOS>ATOM
      1 CA        -83.7829   24.4021  -72.4645 C.3       0 UNK        -0.1998 
      2 C         -83.3715   25.3383  -73.5908 C.2       0 UNK         0.4909 
      3 O         -83.5343   24.9960  -74.7629 O.2       0 UNK        -0.5240 
      4 N         -82.8438   26.5199  -73.2461 N.am      1 UNK        -0.4739 
      5 CA        -82.3114   27.5033  -74.1945 C.3       1 UNK         0.0864 
      6 C6        -82.1444   28.9020  -73.5384 C.3       11 UNK        -0.0881 
      7 S7        -80.9747   28.9518  -72.1310 S.3       11 UNK        -0.2682 
      8 C8        -79.4828   29.6026  -72.9529 C.3       11 UNK         0.0289 
      9 C9        -78.2111   29.2177  -72.2123 C.ar      11 UNK        -0.0687 
     10 C10       -77.8261   27.8751  -72.1297 C.ar      11 UNK        -0.0823 
     11 C11       -76.6513   27.5129  -71.4645 C.ar      11 UNK        -0.0830 
     12 C12       -75.8522   28.5073  -70.8909 C.ar      11 UNK        -0.1021 
     13 C13       -76.2117   29.8542  -70.9907 C.ar      11 UNK        -0.0753 
     14 C14       -77.3979   30.2025  -71.6439 C.ar      11 UNK        -0.0933 
     15 C15       -75.3284   30.9363  -70.3884 C.3       11 UNK         0.0166 
     16 S16       -74.0411   31.4753  -71.5579 S.3       11 UNK        -0.2615 
     17 C17       -72.6510   30.3888  -71.0895 C.3       11 UNK        -0.0865 
     18 CA        -71.3882   30.6406  -71.9562 C.3       10 UNK         0.0862 
     19 C         -70.1366   29.9413  -71.3480 C.2       10 UNK         0.5551 
     20 N         -69.4703   29.0325  -72.0502 N.am      10 UNK        -0.7319 
     21 O         -69.7578   30.2378  -70.2175 O.2       10 UNK        -0.5018 
     22 N         -71.6390   30.3117  -73.3686 N.am      10 UNK        -0.4509 
     23 C         -71.0069   30.8497  -74.4202 C.2       10 UNK         0.4899 
     24 O         -70.1338   31.7127  -74.3250 O.2       10 UNK        -0.4839 
     25 CA        -71.4002   30.3333  -75.8197 C.3       9 UNK         0.0222 
     26 CB        -70.2573   29.5059  -76.4311 C.3       9 UNK        -0.1966 
     27 N         -72.6195   29.5202  -75.8116 N.am      9 UNK        -0.4218 
     28 C         -73.8673   29.9902  -75.7071 C.2       9 UNK         0.5020 
     29 O         -74.1504   31.1890  -75.7352 O.2       9 UNK        -0.5274 
     30 CA        -74.9713   28.9296  -75.5243 C.3       8 UNK         0.0270 
     31 CB        -76.3215   29.5530  -75.1347 C.3       8 UNK        -0.1976 
     32 N         -75.1587   28.0765  -76.7025 N.am      8 UNK        -0.4313 
     33 C         -74.2997   27.1509  -77.1482 C.2       8 UNK         0.5041 
     34 O         -73.2234   26.8987  -76.5987 O.2       8 UNK        -0.5577 
     35 CA        -74.7077   26.4073  -78.4295 C.3       7 UNK         0.0284 
     36 CB        -74.6688   27.3607  -79.6370 C.3       7 UNK        -0.1958 
     37 N         -73.7811   25.3021  -78.6904 N.am      7 UNK        -0.4454 
     38 C         -73.9744   23.9839  -78.5405 C.2       7 UNK         0.5089 
     39 O         -73.0747   23.1838  -78.7979 O.2       7 UNK        -0.5125 
     40 CA        -75.3355   23.4515  -78.0318 C.3       6 UNK         0.0408 
     41 CB        -75.4748   21.9224  -78.1895 C.3       6 UNK        -0.1791 
     42 N         -75.6228   23.8386  -76.6451 N.am      6 UNK        -0.4762 
     43 C         -74.8800   23.5971  -75.5518 C.2       6 UNK         0.5007 
     44 O         -73.8017   23.0029  -75.5704 O.2       6 UNK        -0.5032 
     45 CA        -75.4480   24.0493  -74.1920 C.3       5 UNK         0.0783 
     46 C46       -75.0435   25.5036  -73.8345 C.3       11 UNK        -0.0857 
     47 S47       -74.6491   25.6665  -72.0630 S.3       11 UNK        -0.2512 
     48 C48       -76.2687   26.0466  -71.3223 C.3       11 UNK         0.0225 
     49 N         -76.9022   23.8708  -74.1562 N.am      5 UNK        -0.4615 
     50 C         -77.5278   22.8587  -73.5415 C.2       4 UNK         0.5053 
     51 O         -76.9516   21.9845  -72.8935 O.2       4 UNK        -0.5105 
     52 CA        -79.0605   22.8076  -73.6635 C.3       4 UNK         0.0263 
     53 CB        -79.7173   23.5134  -72.4660 C.3       4 UNK        -0.1981 
     54 N         -79.5476   23.3932  -74.9162 N.am      4 UNK        -0.4224 
     55 C         -79.4082   22.8044  -76.1155 C.2       3 UNK         0.4895 
     56 O         -78.9165   21.6858  -76.2671 O.2       3 UNK        -0.5091 
     57 CA        -79.8823   23.5709  -77.3657 C.3       3 UNK         0.0250 
     58 CB        -81.2301   23.0146  -77.8531 C.3       3 UNK        -0.1996 
     59 N         -80.0046   25.0190  -77.1877 N.am      3 UNK        -0.4254 
     60 C         -78.9961   25.8569  -76.9148 C.2       2 UNK         0.5004 
     61 O         -77.8251   25.5067  -76.7736 O.2       2 UNK        -0.5226 
     62 CA        -79.3674   27.3296  -76.6868 C.3       2 UNK         0.0269 
     63 CB        -79.3335   28.1089  -78.0102 C.3       2 UNK        -0.1926 
     64 N         -80.6568   27.5413  -76.0143 N.am      2 UNK        -0.4687 
     65 C         -80.9944   27.0088  -74.8296 C.2       1 UNK         0.5165 
     66 O         -80.2871   26.1965  -74.2278 O.2       1 UNK        -0.5079 
     67 H67       -84.8668   24.2922  -72.4458 H         1 UNK         0.0900 
     68 H68       -83.3436   23.4165  -72.6156 H         1 UNK         0.0900 
     69 H69       -83.4599   24.7706  -71.4911 H         1 UNK         0.0900 
     70 H70       -82.6924   26.7381  -72.2714 H         1 UNK         0.2959 
     71 H71       -83.0410   27.6007  -75.0018 H         1 UNK         0.1079 
     72 H72       -83.1139   29.2421  -73.1710 H         1 UNK         0.0837 
     73 H73       -81.8495   29.6430  -74.2838 H         1 UNK         0.0837 
     74 H74       -79.5736   30.6864  -73.0393 H         1 UNK         0.0685 
     75 H75       -79.4121   29.2224  -73.9712 H         1 UNK         0.0685 
     76 H76       -78.4542   27.1140  -72.5726 H         1 UNK         0.1434 
     77 H77       -74.9466   28.2293  -70.3698 H         1 UNK         0.1329 
     78 H78       -77.6803   31.2436  -71.7199 H         1 UNK         0.1335 
     79 H79       -74.8752   30.5861  -69.4597 H         1 UNK         0.0680 
     80 H80       -75.9361   31.8014  -70.1185 H         1 UNK         0.0680 
     81 H81       -72.4350   30.5689  -70.0344 H         1 UNK         0.1032 
     82 H82       -72.9630   29.3460  -71.1652 H         1 UNK         0.1032 
     83 H83       -71.1701   31.7092  -71.9029 H         1 UNK         0.0461 
     84 H84       -69.7681   28.7876  -72.9801 H         1 UNK         0.3453 
     85 H85       -68.6593   28.5919  -71.6454 H         1 UNK         0.3453 
     86 H86       -72.3403   29.6087  -73.5414 H         1 UNK         0.2984 
     87 H87       -71.5683   31.2054  -76.4549 H         1 UNK         0.0554 
     88 H88       -69.3359   30.0878  -76.4832 H         1 UNK         0.0847 
     89 H89       -70.4962   29.1902  -77.4469 H         1 UNK         0.0847 
     90 H90       -70.0456   28.6114  -75.8439 H         1 UNK         0.0847 
     91 H91       -72.5134   28.5099  -75.8894 H         1 UNK         0.3141 
     92 H92       -74.6571   28.2994  -74.6901 H         1 UNK         0.0743 
     93 H93       -76.7683   30.1143  -75.9560 H         1 UNK         0.0784 
     94 H94       -77.0238   28.7852  -74.8181 H         1 UNK         0.0784 
     95 H95       -76.2057   30.2390  -74.2943 H         1 UNK         0.0784 
     96 H96       -75.9969   28.2453  -77.2382 H         1 UNK         0.3213 
     97 H97       -75.7306   26.0541  -78.3081 H         1 UNK         0.0855 
     98 H98       -73.6810   27.8042  -79.7715 H         1 UNK         0.0814 
     99 H99       -75.3805   28.1793  -79.5243 H         1 UNK         0.0814 
    100 H100      -74.9276   26.8398  -80.5592 H         1 UNK         0.0814 
    101 H101      -72.8457   25.5985  -78.9272 H         1 UNK         0.3105 
    102 H102      -76.1118   23.8959  -78.6553 H         1 UNK         0.0547 
    103 H103      -76.4639   21.5823  -77.8824 H         1 UNK         0.0837 
    104 H104      -74.7370   21.3814  -77.5961 H         1 UNK         0.0837 
    105 H105      -75.3376   21.6236  -79.2293 H         1 UNK         0.0837 
    106 H106      -76.4741   24.3885  -76.5390 H         1 UNK         0.3020 
    107 H107      -74.9829   23.3788  -73.4649 H         1 UNK         0.1245 
    108 H108      -75.8131   26.2224  -74.1217 H         1 UNK         0.0781 
    109 H109      -74.1382   25.8045  -74.3641 H         1 UNK         0.0781 
    110 H110      -76.2286   25.8021  -70.2601 H         1 UNK         0.0836 
    111 H111      -77.0296   25.3950  -71.7527 H         1 UNK         0.0836 
    112 H112      -77.4548   24.5251  -74.6933 H         1 UNK         0.3022 
    113 H113      -79.3600   21.7575  -73.6401 H         1 UNK         0.0747 
    114 H114      -80.8042   23.4859  -72.5354 H         1 UNK         0.0793 
    115 H115      -79.4392   23.0283  -71.5295 H         1 UNK         0.0793 
    116 H116      -79.4124   24.5574  -72.3914 H         1 UNK         0.0793 
    117 H117      -79.9452   24.3264  -74.8568 H         1 UNK         0.3047 
    118 H118      -79.1370   23.3985  -78.1454 H         1 UNK         0.0822 
    119 H119      -81.5335   23.4742  -78.7940 H         1 UNK         0.0807 
    120 H120      -82.0231   23.1850  -77.1232 H         1 UNK         0.0807 
    121 H121      -81.1709   21.9389  -78.0253 H         1 UNK         0.0807 
    122 H122      -80.9357   25.4055  -77.2478 H         1 UNK         0.2946 
    123 H123      -78.5991   27.7394  -76.0320 H         1 UNK         0.1144 
    124 H124      -79.4516   29.1798  -77.8435 H         1 UNK         0.0793 
    125 H125      -80.1231   27.7852  -78.6895 H         1 UNK         0.0793 
    126 H126      -78.3828   27.9668  -78.5262 H         1 UNK         0.0793 
    127 H127      -81.2883   28.1970  -76.4527 H         1 UNK         0.2896 
@<TRIPOS>BOND
     1    1    2 1    
     2    1   67 1    
     3    1   68 1    
     4    1   69 1    
     5    2    3 2    
     6    2    4 am   BACKBONE|DICT|INTERRES
     7    4    5 1    
     8    4   70 1    
     9    5    6 1    
    10    5   65 1    
    11    5   71 1    
    12    6    7 1    
    13    6   72 1    
    14    6   73 1    
    15    7    8 1    
    16    8    9 1    
    17    8   74 1    
    18    8   75 1    
    19    9   10 ar   
    20    9   14 ar   
    21   10   11 ar   
    22   10   76 1    
    23   11   12 ar   
    24   11   48 1    
    25   12   13 ar   
    26   12   77 1    
    27   13   14 ar   
    28   13   15 1    
    29   14   78 1    
    30   15   16 1    
    31   15   79 1    
    32   15   80 1    
    33   16   17 1    
    34   17   18 1    
    35   17   81 1    
    36   17   82 1    
    37   18   19 1    
    38   18   22 1    
    39   18   83 1    
    40   19   20 am   BACKBONE|DICT|INTERRES
    41   19   21 2    
    42   20   84 1    
    43   20   85 1    
    44   22   23 am   BACKBONE|DICT|INTERRES
    45   22   86 1    
    46   23   24 2    
    47   23   25 1    
    48   25   26 1    
    49   25   27 1    
    50   25   87 1    
    51   26   88 1    
    52   26   89 1    
    53   26   90 1    
    54   27   28 am   BACKBONE|DICT|INTERRES
    55   27   91 1    
    56   28   29 2    
    57   28   30 1    
    58   30   31 1    
    59   30   32 1    
    60   30   92 1    
    61   31   93 1    
    62   31   94 1    
    63   31   95 1    
    64   32   33 am   BACKBONE|DICT|INTERRES
    65   32   96 1    
    66   33   34 2    
    67   33   35 1    
    68   35   36 1    
    69   35   37 1    
    70   35   97 1    
    71   36   98 1    
    72   36   99 1    
    73   36  100 1    
    74   37   38 am   BACKBONE|DICT|INTERRES
    75   37  101 1    
    76   38   39 2    
    77   38   40 1    
    78   40   41 1    
    79   40   42 1    
    80   40  102 1    
    81   41  103 1    
    82   41  104 1    
    83   41  105 1    
    84   42   43 am   BACKBONE|DICT|INTERRES
    85   42  106 1    
    86   43   44 2    
    87   43   45 1    
    88   45   46 1    
    89   45   49 1    
    90   45  107 1    
    91   46   47 1    
    92   46  108 1    
    93   46  109 1    
    94   47   48 1    
    95   48  110 1    
    96   48  111 1    
    97   49   50 am   BACKBONE|DICT|INTERRES
    98   49  112 1    
    99   50   51 2    
   100   50   52 1    
   101   52   53 1    
   102   52   54 1    
   103   52  113 1    
   104   53  114 1    
   105   53  115 1    
   106   53  116 1    
   107   54   55 am   BACKBONE|DICT|INTERRES
   108   54  117 1    
   109   55   56 2    
   110   55   57 1    
   111   57   58 1    
   112   57   59 1    
   113   57  118 1    
   114   58  119 1    
   115   58  120 1    
   116   58  121 1    
   117   59   60 am   BACKBONE|DICT|INTERRES
   118   59  122 1    
   119   60   61 2    
   120   60   62 1    
   121   62   63 1    
   122   62   64 1    
   123   62  123 1    
   124   63  124 1    
   125   63  125 1    
   126   63  126 1    
   127   64   65 am   BACKBONE|DICT|INTERRES
   128   64  127 1    
   129   65   66 2    
@<TRIPOS>SUBSTRUCTURE
     1 UNK         1 GROUP             0       ****    0 ROOT    
