@<TRIPOS>MOLECULE
3R135
127   129    1
SMALL
USER_CHARGES


@<TRIPOS>ATOM
      1 CA        -82.8377   30.1893  -74.5558 C.3       0 UNK        -0.1998 
      2 C         -81.4893   29.7045  -74.0462 C.2       0 UNK         0.4909 
      3 O         -80.4874   30.4013  -74.2061 O.2       0 UNK        -0.5240 
      4 N         -81.4523   28.5079  -73.4462 N.am      1 UNK        -0.4739 
      5 CA        -80.2645   27.8633  -72.8681 C.3       1 UNK         0.0864 
      6 C6        -80.6720   26.8332  -71.7803 C.3       11 UNK        -0.0881 
      7 S7        -81.3226   27.6818  -70.2960 S.3       11 UNK        -0.2682 
      8 C8        -80.0085   27.4312  -69.0493 C.3       11 UNK         0.0289 
      9 C9        -78.6071   27.6286  -69.6132 C.ar      11 UNK        -0.0687 
     10 C10       -77.7412   26.5368  -69.7227 C.ar      11 UNK        -0.0823 
     11 C11       -76.4863   26.6795  -70.3200 C.ar      11 UNK        -0.0830 
     12 C12       -76.0911   27.9324  -70.7977 C.ar      11 UNK        -0.1021 
     13 C13       -76.9410   29.0367  -70.6726 C.ar      11 UNK        -0.0753 
     14 C14       -78.1915   28.8836  -70.0669 C.ar      11 UNK        -0.0933 
     15 C15       -76.5221   30.3852  -71.2304 C.3       11 UNK         0.0166 
     16 S16       -76.9801   30.4980  -72.9838 S.3       11 UNK        -0.2615 
     17 C17       -76.1324   32.0333  -73.5036 C.3       11 UNK        -0.0865 
     18 CA        -74.7026   31.8106  -74.0759 C.3       10 UNK         0.0862 
     19 C         -73.6239   31.7928  -72.9526 C.2       10 UNK         0.5551 
     20 N         -72.9301   30.6894  -72.7011 N.am      10 UNK        -0.7319 
     21 O         -73.4103   32.8107  -72.2989 O.2       10 UNK        -0.5018 
     22 N         -74.6674   30.6622  -74.9909 N.am      10 UNK        -0.4509 
     23 C         -73.7240   30.4079  -75.9005 C.2       10 UNK         0.4899 
     24 O         -72.7958   31.1694  -76.1782 O.2       10 UNK        -0.4839 
     25 CA        -73.8355   29.0443  -76.6019 C.3       9 UNK         0.0222 
     26 CB        -73.8567   29.1970  -78.1316 C.3       9 UNK        -0.1966 
     27 N         -72.7575   28.1333  -76.2159 N.am      9 UNK        -0.4218 
     28 C         -72.4889   27.7265  -74.9662 C.2       9 UNK         0.5020 
     29 O         -73.0958   28.1143  -73.9653 O.2       9 UNK        -0.5274 
     30 CA        -71.3889   26.6661  -74.8338 C.3       8 UNK         0.0270 
     31 CB        -71.2005   26.1643  -73.3879 C.3       8 UNK        -0.1976 
     32 N         -71.7102   25.5388  -75.7081 N.am      8 UNK        -0.4313 
     33 C         -70.8143   24.8060  -76.3824 C.2       8 UNK         0.5041 
     34 O         -69.6028   25.0288  -76.3579 O.2       8 UNK        -0.5577 
     35 CA        -71.3278   23.6107  -77.2104 C.3       7 UNK         0.0284 
     36 CB        -70.8715   22.2850  -76.5772 C.3       7 UNK        -0.1958 
     37 N         -72.7839   23.5793  -77.3638 N.am      7 UNK        -0.4454 
     38 C         -73.4844   24.3293  -78.2246 C.2       7 UNK         0.5089 
     39 O         -72.9732   25.1117  -79.0257 O.2       7 UNK        -0.5125 
     40 CA        -75.0182   24.2050  -78.1544 C.3       6 UNK         0.0408 
     41 CB        -75.5286   23.1798  -79.1782 C.3       6 UNK        -0.1791 
     42 N         -75.5275   23.8544  -76.8217 N.am      6 UNK        -0.4762 
     43 C         -75.3893   24.6155  -75.7272 C.2       6 UNK         0.5007 
     44 O         -74.7701   25.6776  -75.7298 O.2       6 UNK        -0.5032 
     45 CA        -76.0305   24.1009  -74.4227 C.3       5 UNK         0.0783 
     46 C46       -75.7597   25.0430  -73.2201 C.3       11 UNK        -0.0857 
     47 S47       -76.2134   24.2577  -71.6412 S.3       11 UNK        -0.2512 
     48 C48       -75.5691   25.4721  -70.4467 C.3       11 UNK         0.0225 
     49 N         -77.4646   23.8685  -74.6110 N.am      5 UNK        -0.4615 
     50 C         -78.0148   22.7754  -75.1530 C.2       4 UNK         0.5053 
     51 O         -77.3594   21.8286  -75.5893 O.2       4 UNK        -0.5105 
     52 CA        -79.5447   22.7574  -75.2616 C.3       4 UNK         0.0263 
     53 CB        -80.1923   22.6213  -73.8727 C.3       4 UNK        -0.1981 
     54 N         -80.0112   23.9857  -75.9024 N.am      4 UNK        -0.4224 
     55 C         -80.3280   24.1024  -77.1999 C.2       3 UNK         0.4895 
     56 O         -80.3629   23.1563  -77.9875 O.2       3 UNK        -0.5091 
     57 CA        -80.6584   25.5167  -77.7163 C.3       3 UNK         0.0250 
     58 CB        -82.1710   25.7794  -77.6379 C.3       3 UNK        -0.1996 
     59 N         -79.9488   26.5714  -76.9888 N.am      3 UNK        -0.4254 
     60 C         -78.6218   26.7604  -77.0201 C.2       2 UNK         0.5004 
     61 O         -77.8691   26.1551  -77.7805 O.2       2 UNK        -0.5226 
     62 CA        -78.0279   27.7795  -76.0290 C.3       2 UNK         0.0269 
     63 CB        -77.6730   29.0828  -76.7631 C.3       2 UNK        -0.1926 
     64 N         -78.8912   28.1044  -74.8862 N.am      2 UNK        -0.4687 
     65 C         -79.3688   27.2532  -73.9677 C.2       1 UNK         0.5165 
     66 O         -79.1704   26.0376  -74.0078 O.2       1 UNK        -0.5079 
     67 H67       -83.1012   31.1321  -74.0775 H         1 UNK         0.0900 
     68 H68       -82.7948   30.3534  -75.6322 H         1 UNK         0.0900 
     69 H69       -83.6329   29.4723  -74.3529 H         1 UNK         0.0900 
     70 H70       -82.3111   27.9850  -73.3493 H         1 UNK         0.2959 
     71 H71       -79.6546   28.6339  -72.3924 H         1 UNK         0.1079 
     72 H72       -81.4359   26.1533  -72.1615 H         1 UNK         0.0837 
     73 H73       -79.8348   26.1941  -71.4979 H         1 UNK         0.0837 
     74 H74       -80.1662   28.1257  -68.2231 H         1 UNK         0.0685 
     75 H75       -80.1162   26.4295  -68.6304 H         1 UNK         0.0685 
     76 H76       -78.0545   25.5621  -69.3736 H         1 UNK         0.1434 
     77 H77       -75.1292   28.0488  -71.2796 H         1 UNK         0.1329 
     78 H78       -78.8615   29.7293  -69.9909 H         1 UNK         0.1335 
     79 H79       -75.4456   30.5114  -71.1136 H         1 UNK         0.0680 
     80 H80       -76.9953   31.1967  -70.6753 H         1 UNK         0.0680 
     81 H81       -76.7517   32.4831  -74.2811 H         1 UNK         0.1032 
     82 H82       -76.1355   32.7577  -72.6865 H         1 UNK         0.1032 
     83 H83       -74.4652   32.6911  -74.6762 H         1 UNK         0.0461 
     84 H84       -72.2342   30.7021  -71.9738 H         1 UNK         0.3453 
     85 H85       -73.1010   29.8312  -73.2200 H         1 UNK         0.3453 
     86 H86       -75.3520   29.9480  -74.7882 H         1 UNK         0.2984 
     87 H87       -74.7723   28.5695  -76.3030 H         1 UNK         0.0554 
     88 H88       -74.6577   29.8676  -78.4453 H         1 UNK         0.0847 
     89 H89       -74.0267   28.2384  -78.6230 H         1 UNK         0.0847 
     90 H90       -72.9205   29.6089  -78.5104 H         1 UNK         0.0847 
     91 H91       -72.2004   27.7539  -76.9674 H         1 UNK         0.3141 
     92 H92       -70.4601   27.1396  -75.1591 H         1 UNK         0.0743 
     93 H93       -70.9556   26.9884  -72.7167 H         1 UNK         0.0784 
     94 H94       -72.1051   25.6888  -73.0070 H         1 UNK         0.0784 
     95 H95       -70.3879   25.4407  -73.3221 H         1 UNK         0.0784 
     96 H96       -72.7016   25.3493  -75.8219 H         1 UNK         0.3213 
     97 H97       -70.8756   23.6877  -78.2018 H         1 UNK         0.0855 
     98 H98       -71.2858   22.1504  -75.5772 H         1 UNK         0.0814 
     99 H99       -69.7849   22.2487  -76.4860 H         1 UNK         0.0814 
    100 H100      -71.1706   21.4303  -77.1843 H         1 UNK         0.0814 
    101 H101      -73.2958   22.9616  -76.7507 H         1 UNK         0.3105 
    102 H102      -75.4302   25.1811  -78.4178 H         1 UNK         0.0547 
    103 H103      -76.6185   23.1602  -79.2067 H         1 UNK         0.0837 
    104 H104      -75.1845   23.4273  -80.1833 H         1 UNK         0.0837 
    105 H105      -75.1787   22.1720  -78.9516 H         1 UNK         0.0837 
    106 H106      -76.0680   22.9999  -76.7379 H         1 UNK         0.3020 
    107 H107      -75.5472   23.1452  -74.2061 H         1 UNK         0.1245 
    108 H108      -76.3066   25.9821  -73.3268 H         1 UNK         0.0781 
    109 H109      -74.7015   25.3067  -73.1632 H         1 UNK         0.0781 
    110 H110      -74.5593   25.7719  -70.7318 H         1 UNK         0.0836 
    111 H111      -75.4792   24.9913  -69.4716 H         1 UNK         0.0836 
    112 H112      -78.0749   24.6207  -74.2990 H         1 UNK         0.3022 
    113 H113      -79.8326   21.8868  -75.8550 H         1 UNK         0.0747 
    114 H114      -81.2779   22.5595  -73.9493 H         1 UNK         0.0793 
    115 H115      -79.8505   21.7151  -73.3709 H         1 UNK         0.0793 
    116 H116      -79.9523   23.4641  -73.2228 H         1 UNK         0.0793 
    117 H117      -79.9561   24.8275  -75.3382 H         1 UNK         0.3047 
    118 H118      -80.3534   25.5649  -78.7640 H         1 UNK         0.0822 
    119 H119      -82.7267   25.0224  -78.1933 H         1 UNK         0.0807 
    120 H120      -82.4290   26.7477  -78.0674 H         1 UNK         0.0807 
    121 H121      -82.5332   25.7596  -76.6092 H         1 UNK         0.0807 
    122 H122      -80.4911   27.1349  -76.3510 H         1 UNK         0.2946 
    123 H123      -77.1097   27.3406  -75.6323 H         1 UNK         0.1144 
    124 H124      -77.1904   29.7982  -76.0984 H         1 UNK         0.0793 
    125 H125      -78.5601   29.5629  -77.1783 H         1 UNK         0.0793 
    126 H126      -76.9881   28.8922  -77.5905 H         1 UNK         0.0793 
    127 H127      -79.1570   29.0802  -74.7788 H         1 UNK         0.2896 
@<TRIPOS>BOND
     1    1    2 1    
     2    1   67 1    
     3    1   68 1    
     4    1   69 1    
     5    2    3 2    
     6    2    4 am   BACKBONE|DICT|INTERRES
     7    4    5 1    
     8    4   70 1    
     9    5    6 1    
    10    5   65 1    
    11    5   71 1    
    12    6    7 1    
    13    6   72 1    
    14    6   73 1    
    15    7    8 1    
    16    8    9 1    
    17    8   74 1    
    18    8   75 1    
    19    9   10 ar   
    20    9   14 ar   
    21   10   11 ar   
    22   10   76 1    
    23   11   12 ar   
    24   11   48 1    
    25   12   13 ar   
    26   12   77 1    
    27   13   14 ar   
    28   13   15 1    
    29   14   78 1    
    30   15   16 1    
    31   15   79 1    
    32   15   80 1    
    33   16   17 1    
    34   17   18 1    
    35   17   81 1    
    36   17   82 1    
    37   18   19 1    
    38   18   22 1    
    39   18   83 1    
    40   19   20 am   BACKBONE|DICT|INTERRES
    41   19   21 2    
    42   20   84 1    
    43   20   85 1    
    44   22   23 am   BACKBONE|DICT|INTERRES
    45   22   86 1    
    46   23   24 2    
    47   23   25 1    
    48   25   26 1    
    49   25   27 1    
    50   25   87 1    
    51   26   88 1    
    52   26   89 1    
    53   26   90 1    
    54   27   28 am   BACKBONE|DICT|INTERRES
    55   27   91 1    
    56   28   29 2    
    57   28   30 1    
    58   30   31 1    
    59   30   32 1    
    60   30   92 1    
    61   31   93 1    
    62   31   94 1    
    63   31   95 1    
    64   32   33 am   BACKBONE|DICT|INTERRES
    65   32   96 1    
    66   33   34 2    
    67   33   35 1    
    68   35   36 1    
    69   35   37 1    
    70   35   97 1    
    71   36   98 1    
    72   36   99 1    
    73   36  100 1    
    74   37   38 am   BACKBONE|DICT|INTERRES
    75   37  101 1    
    76   38   39 2    
    77   38   40 1    
    78   40   41 1    
    79   40   42 1    
    80   40  102 1    
    81   41  103 1    
    82   41  104 1    
    83   41  105 1    
    84   42   43 am   BACKBONE|DICT|INTERRES
    85   42  106 1    
    86   43   44 2    
    87   43   45 1    
    88   45   46 1    
    89   45   49 1    
    90   45  107 1    
    91   46   47 1    
    92   46  108 1    
    93   46  109 1    
    94   47   48 1    
    95   48  110 1    
    96   48  111 1    
    97   49   50 am   BACKBONE|DICT|INTERRES
    98   49  112 1    
    99   50   51 2    
   100   50   52 1    
   101   52   53 1    
   102   52   54 1    
   103   52  113 1    
   104   53  114 1    
   105   53  115 1    
   106   53  116 1    
   107   54   55 am   BACKBONE|DICT|INTERRES
   108   54  117 1    
   109   55   56 2    
   110   55   57 1    
   111   57   58 1    
   112   57   59 1    
   113   57  118 1    
   114   58  119 1    
   115   58  120 1    
   116   58  121 1    
   117   59   60 am   BACKBONE|DICT|INTERRES
   118   59  122 1    
   119   60   61 2    
   120   60   62 1    
   121   62   63 1    
   122   62   64 1    
   123   62  123 1    
   124   63  124 1    
   125   63  125 1    
   126   63  126 1    
   127   64   65 am   BACKBONE|DICT|INTERRES
   128   64  127 1    
   129   65   66 2    
@<TRIPOS>SUBSTRUCTURE
     1 UNK         1 GROUP             0       ****    0 ROOT    
