@<TRIPOS>MOLECULE
3R135
127   129    1
SMALL
USER_CHARGES


@<TRIPOS>ATOM
      1 CA        -82.1087   26.1604  -69.5186 C.3       0 UNK        -0.1998 
      2 C         -82.5848   26.4137  -70.9413 C.2       0 UNK         0.4909 
      3 O         -83.7202   26.0737  -71.2773 O.2       0 UNK        -0.5240 
      4 N         -81.7285   27.0168  -71.7744 N.am      1 UNK        -0.4739 
      5 CA        -81.9901   27.2783  -73.1945 C.3       1 UNK         0.0864 
      6 C6        -81.1121   28.4292  -73.7578 C.3       11 UNK        -0.0881 
      7 S7        -81.2812   29.9775  -72.7997 S.3       11 UNK        -0.2682 
      8 C8        -79.6229   30.7354  -72.9683 C.3       11 UNK         0.0289 
      9 C9        -78.4515   29.8617  -72.5155 C.ar      11 UNK        -0.0687 
     10 C10       -78.5999   28.8737  -71.5341 C.ar      11 UNK        -0.0823 
     11 C11       -77.5373   28.0320  -71.1979 C.ar      11 UNK        -0.0830 
     12 C12       -76.2920   28.2332  -71.7973 C.ar      11 UNK        -0.1021 
     13 C13       -76.1139   29.2419  -72.7468 C.ar      11 UNK        -0.0753 
     14 C14       -77.1974   30.0476  -73.1073 C.ar      11 UNK        -0.0933 
     15 C15       -74.7573   29.4212  -73.4058 C.3       11 UNK         0.0166 
     16 S16       -73.5144   30.0282  -72.2185 S.3       11 UNK        -0.2615 
     17 C17       -73.2251   31.7341  -72.8119 C.3       11 UNK        -0.0865 
     18 CA        -71.9700   31.8532  -73.7188 C.3       10 UNK         0.0862 
     19 C         -70.6442   31.8044  -72.8998 C.2       10 UNK         0.5551 
     20 N         -69.7677   30.8245  -73.0925 N.am      10 UNK        -0.7319 
     21 O         -70.4021   32.6872  -72.0801 O.2       10 UNK        -0.5018 
     22 N         -72.0423   30.8998  -74.8327 N.am      10 UNK        -0.4509 
     23 C         -71.3520   30.9654  -75.9741 C.2       10 UNK         0.4899 
     24 O         -70.6465   31.9230  -76.2948 O.2       10 UNK        -0.4839 
     25 CA        -71.4806   29.7457  -76.9086 C.3       9 UNK         0.0222 
     26 CB        -70.2644   29.5884  -77.8454 C.3       9 UNK        -0.1966 
     27 N         -71.7595   28.4798  -76.2104 N.am      9 UNK        -0.4218 
     28 C         -70.9954   27.8717  -75.2846 C.2       9 UNK         0.5020 
     29 O         -69.9762   28.3770  -74.8112 O.2       9 UNK        -0.5274 
     30 CA        -71.4243   26.4730  -74.7865 C.3       8 UNK         0.0270 
     31 CB        -71.8366   26.5119  -73.3056 C.3       8 UNK        -0.1976 
     32 N         -72.4987   25.8604  -75.5752 N.am      8 UNK        -0.4313 
     33 C         -72.3516   25.4113  -76.8320 C.2       8 UNK         0.5041 
     34 O         -71.2627   25.3509  -77.4045 O.2       8 UNK        -0.5577 
     35 CA        -73.6177   24.9921  -77.6071 C.3       7 UNK         0.0284 
     36 CB        -73.7112   23.4584  -77.6723 C.3       7 UNK        -0.1958 
     37 N         -74.8798   25.5345  -77.0875 N.am      7 UNK        -0.4454 
     38 C         -75.1634   26.8307  -76.8848 C.2       7 UNK         0.5089 
     39 O         -74.3988   27.7497  -77.1806 O.2       7 UNK        -0.5125 
     40 CA        -76.4837   27.1649  -76.1649 C.3       6 UNK         0.0408 
     41 CB        -77.5587   27.5893  -77.1744 C.3       6 UNK        -0.1791 
     42 N         -77.0010   26.0929  -75.3035 N.am      6 UNK        -0.4762 
     43 C         -76.3458   25.5742  -74.2492 C.2       6 UNK         0.5007 
     44 O         -75.1960   25.8945  -73.9413 O.2       6 UNK        -0.5032 
     45 CA        -77.0590   24.4711  -73.4463 C.3       5 UNK         0.0783 
     46 C46       -78.0197   25.0323  -72.3628 C.3       11 UNK        -0.0857 
     47 S47       -77.1476   25.2839  -70.7747 S.3       11 UNK        -0.2512 
     48 C48       -77.7486   26.9065  -70.1929 C.3       11 UNK         0.0225 
     49 N         -77.7175   23.5240  -74.3507 N.am      5 UNK        -0.4615 
     50 C         -77.1106   22.4331  -74.8411 C.2       4 UNK         0.5053 
     51 O         -75.9646   22.0932  -74.5454 O.2       4 UNK        -0.5105 
     52 CA        -77.9023   21.5701  -75.8378 C.3       4 UNK         0.0263 
     53 CB        -78.8316   20.5995  -75.0910 C.3       4 UNK        -0.1981 
     54 N         -78.6829   22.3453  -76.8023 N.am      4 UNK        -0.4224 
     55 C         -78.1796   23.2267  -77.6789 C.2       3 UNK         0.4895 
     56 O         -76.9850   23.5020  -77.7734 O.2       3 UNK        -0.5091 
     57 CA        -79.1892   23.9503  -78.5860 C.3       3 UNK         0.0250 
     58 CB        -79.4001   23.1622  -79.8886 C.3       3 UNK        -0.1996 
     59 N         -80.4868   24.1978  -77.9472 N.am      3 UNK        -0.4254 
     60 C         -80.6644   24.9071  -76.8236 C.2       2 UNK         0.5004 
     61 O         -79.7358   25.4275  -76.1982 O.2       2 UNK        -0.5226 
     62 CA        -82.1219   25.0294  -76.3354 C.3       2 UNK         0.0269 
     63 CB        -82.6925   23.6577  -75.9126 C.3       2 UNK        -0.1926 
     64 N         -82.2947   26.0260  -75.2687 N.am      2 UNK        -0.4687 
     65 C         -81.7899   25.9943  -74.0260 C.2       1 UNK         0.5165 
     66 O         -81.1653   25.0394  -73.5534 O.2       1 UNK        -0.5079 
     67 H67       -82.8643   26.4885  -68.8051 H         1 UNK         0.0900 
     68 H68       -81.9347   25.0956  -69.3660 H         1 UNK         0.0900 
     69 H69       -81.1851   26.6938  -69.2967 H         1 UNK         0.0900 
     70 H70       -80.7967   27.2339  -71.4603 H         1 UNK         0.2959 
     71 H71       -83.0373   27.5732  -73.2954 H         1 UNK         0.1079 
     72 H72       -80.0659   28.1213  -73.7952 H         1 UNK         0.0837 
     73 H73       -81.3883   28.6545  -74.7895 H         1 UNK         0.0837 
     74 H74       -79.4898   31.0166  -74.0142 H         1 UNK         0.0685 
     75 H75       -79.6055   31.6624  -72.3941 H         1 UNK         0.0685 
     76 H76       -79.5539   28.7429  -71.0463 H         1 UNK         0.1434 
     77 H77       -75.4597   27.5922  -71.5395 H         1 UNK         0.1329 
     78 H78       -77.0674   30.8147  -73.8585 H         1 UNK         0.1335 
     79 H79       -74.4311   28.4612  -73.8037 H         1 UNK         0.0680 
     80 H80       -74.8298   30.0859  -74.2676 H         1 UNK         0.0680 
     81 H81       -73.1417   32.3942  -71.9463 H         1 UNK         0.1032 
     82 H82       -74.1059   32.0870  -73.3502 H         1 UNK         0.1032 
     83 H83       -71.9948   32.8518  -74.1592 H         1 UNK         0.0461 
     84 H84       -68.9153   30.8167  -72.5561 H         1 UNK         0.3453 
     85 H85       -69.9477   30.0809  -73.7589 H         1 UNK         0.3453 
     86 H86       -72.5612   30.0564  -74.6419 H         1 UNK         0.2984 
     87 H87       -72.3536   29.9388  -77.5336 H         1 UNK         0.0554 
     88 H88       -70.3835   28.7318  -78.5090 H         1 UNK         0.0847 
     89 H89       -69.3386   29.4523  -77.2853 H         1 UNK         0.0847 
     90 H90       -70.1365   30.4691  -78.4759 H         1 UNK         0.0847 
     91 H91       -72.6133   28.0141  -76.5101 H         1 UNK         0.3141 
     92 H92       -70.5441   25.8318  -74.8674 H         1 UNK         0.0743 
     93 H93       -71.0479   26.9449  -72.6887 H         1 UNK         0.0784 
     94 H94       -72.7347   27.1061  -73.1468 H         1 UNK         0.0784 
     95 H95       -72.0316   25.5097  -72.9235 H         1 UNK         0.0784 
     96 H96       -73.4253   25.8575  -75.1600 H         1 UNK         0.3213 
     97 H97       -73.5012   25.3707  -78.6245 H         1 UNK         0.0855 
     98 H98       -73.9619   23.0278  -76.7018 H         1 UNK         0.0814 
     99 H99       -72.7661   23.0172  -77.9925 H         1 UNK         0.0814 
    100 H100      -74.4671   23.1378  -78.3885 H         1 UNK         0.0814 
    101 H101      -75.6044   24.8555  -76.8802 H         1 UNK         0.3105 
    102 H102      -76.2851   28.0208  -75.5182 H         1 UNK         0.0547 
    103 H103      -77.2141   28.4253  -77.7843 H         1 UNK         0.0837 
    104 H104      -77.8151   26.7758  -77.8513 H         1 UNK         0.0837 
    105 H105      -78.4715   27.9097  -76.6717 H         1 UNK         0.0837 
    106 H106      -77.9405   25.7650  -75.5161 H         1 UNK         0.3020 
    107 H107      -76.2678   23.9273  -72.9239 H         1 UNK         0.1245 
    108 H108      -78.8220   24.3198  -72.1644 H         1 UNK         0.0781 
    109 H109      -78.5172   25.9457  -72.6941 H         1 UNK         0.0781 
    110 H110      -77.2295   27.1613  -69.2682 H         1 UNK         0.0836 
    111 H111      -78.8031   26.8074  -69.9346 H         1 UNK         0.0836 
    112 H112      -78.6501   23.7607  -74.6630 H         1 UNK         0.3022 
    113 H113      -77.1788   20.9809  -76.4054 H         1 UNK         0.0747 
    114 H114      -79.3226   19.9107  -75.7788 H         1 UNK         0.0793 
    115 H115      -78.2709   19.9950  -74.3764 H         1 UNK         0.0793 
    116 H116      -79.6060   21.1282  -74.5336 H         1 UNK         0.0793 
    117 H117      -79.6811   22.1977  -76.8020 H         1 UNK         0.3047 
    118 H118      -78.7595   24.9189  -78.8450 H         1 UNK         0.0822 
    119 H119      -80.0352   23.7090  -80.5858 H         1 UNK         0.0807 
    120 H120      -79.8599   22.1904  -79.7048 H         1 UNK         0.0807 
    121 H121      -78.4496   22.9826  -80.3933 H         1 UNK         0.0807 
    122 H122      -81.2957   23.8066  -78.4085 H         1 UNK         0.2946 
    123 H123      -82.7072   25.3939  -77.1815 H         1 UNK         0.1144 
    124 H124      -83.7046   23.7547  -75.5195 H         1 UNK         0.0793 
    125 H125      -82.0824   23.1778  -75.1467 H         1 UNK         0.0793 
    126 H126      -82.7442   22.9714  -76.7583 H         1 UNK         0.0793 
    127 H127      -82.7718   26.8692  -75.5565 H         1 UNK         0.2896 
@<TRIPOS>BOND
     1    1    2 1    
     2    1   67 1    
     3    1   68 1    
     4    1   69 1    
     5    2    3 2    
     6    2    4 am   BACKBONE|DICT|INTERRES
     7    4    5 1    
     8    4   70 1    
     9    5    6 1    
    10    5   65 1    
    11    5   71 1    
    12    6    7 1    
    13    6   72 1    
    14    6   73 1    
    15    7    8 1    
    16    8    9 1    
    17    8   74 1    
    18    8   75 1    
    19    9   10 ar   
    20    9   14 ar   
    21   10   11 ar   
    22   10   76 1    
    23   11   12 ar   
    24   11   48 1    
    25   12   13 ar   
    26   12   77 1    
    27   13   14 ar   
    28   13   15 1    
    29   14   78 1    
    30   15   16 1    
    31   15   79 1    
    32   15   80 1    
    33   16   17 1    
    34   17   18 1    
    35   17   81 1    
    36   17   82 1    
    37   18   19 1    
    38   18   22 1    
    39   18   83 1    
    40   19   20 am   BACKBONE|DICT|INTERRES
    41   19   21 2    
    42   20   84 1    
    43   20   85 1    
    44   22   23 am   BACKBONE|DICT|INTERRES
    45   22   86 1    
    46   23   24 2    
    47   23   25 1    
    48   25   26 1    
    49   25   27 1    
    50   25   87 1    
    51   26   88 1    
    52   26   89 1    
    53   26   90 1    
    54   27   28 am   BACKBONE|DICT|INTERRES
    55   27   91 1    
    56   28   29 2    
    57   28   30 1    
    58   30   31 1    
    59   30   32 1    
    60   30   92 1    
    61   31   93 1    
    62   31   94 1    
    63   31   95 1    
    64   32   33 am   BACKBONE|DICT|INTERRES
    65   32   96 1    
    66   33   34 2    
    67   33   35 1    
    68   35   36 1    
    69   35   37 1    
    70   35   97 1    
    71   36   98 1    
    72   36   99 1    
    73   36  100 1    
    74   37   38 am   BACKBONE|DICT|INTERRES
    75   37  101 1    
    76   38   39 2    
    77   38   40 1    
    78   40   41 1    
    79   40   42 1    
    80   40  102 1    
    81   41  103 1    
    82   41  104 1    
    83   41  105 1    
    84   42   43 am   BACKBONE|DICT|INTERRES
    85   42  106 1    
    86   43   44 2    
    87   43   45 1    
    88   45   46 1    
    89   45   49 1    
    90   45  107 1    
    91   46   47 1    
    92   46  108 1    
    93   46  109 1    
    94   47   48 1    
    95   48  110 1    
    96   48  111 1    
    97   49   50 am   BACKBONE|DICT|INTERRES
    98   49  112 1    
    99   50   51 2    
   100   50   52 1    
   101   52   53 1    
   102   52   54 1    
   103   52  113 1    
   104   53  114 1    
   105   53  115 1    
   106   53  116 1    
   107   54   55 am   BACKBONE|DICT|INTERRES
   108   54  117 1    
   109   55   56 2    
   110   55   57 1    
   111   57   58 1    
   112   57   59 1    
   113   57  118 1    
   114   58  119 1    
   115   58  120 1    
   116   58  121 1    
   117   59   60 am   BACKBONE|DICT|INTERRES
   118   59  122 1    
   119   60   61 2    
   120   60   62 1    
   121   62   63 1    
   122   62   64 1    
   123   62  123 1    
   124   63  124 1    
   125   63  125 1    
   126   63  126 1    
   127   64   65 am   BACKBONE|DICT|INTERRES
   128   64  127 1    
   129   65   66 2    
@<TRIPOS>SUBSTRUCTURE
     1 UNK         1 GROUP             0       ****    0 ROOT    
