@<TRIPOS>MOLECULE
3R135
127   129    1
SMALL
USER_CHARGES


@<TRIPOS>ATOM
      1 CA        -78.4346   28.9315  -74.9304 C.3       0 UNK        -0.1998 
      2 C         -79.6508   29.8147  -75.1785 C.2       0 UNK         0.4909 
      3 O         -79.5914   30.7026  -76.0267 O.2       0 UNK        -0.5240 
      4 N         -80.7698   29.6237  -74.4679 N.am      1 UNK        -0.4739 
      5 CA        -81.0265   28.5568  -73.4950 C.3       1 UNK         0.0864 
      6 C6        -82.1735   28.9728  -72.5419 C.3       11 UNK        -0.0881 
      7 S7        -82.1853   28.0325  -70.9803 S.3       11 UNK        -0.2682 
      8 C8        -81.1888   29.1048  -69.8932 C.3       11 UNK         0.0289 
      9 C9        -79.6982   28.9933  -70.1853 C.ar      11 UNK        -0.0687 
     10 C10       -79.0387   27.7801  -69.9591 C.ar      11 UNK        -0.0823 
     11 C11       -77.6694   27.6629  -70.2045 C.ar      11 UNK        -0.0830 
     12 C12       -76.9534   28.7801  -70.6342 C.ar      11 UNK        -0.1021 
     13 C13       -77.5976   29.9890  -70.8963 C.ar      11 UNK        -0.0753 
     14 C14       -78.9754   30.0929  -70.6688 C.ar      11 UNK        -0.0933 
     15 C15       -76.7824   31.1692  -71.4092 C.3       11 UNK         0.0166 
     16 S16       -76.0700   30.8374  -73.0612 S.3       11 UNK        -0.2615 
     17 C17       -74.3204   31.3407  -72.8621 C.3       11 UNK        -0.0865 
     18 CA        -73.2866   30.1932  -73.0465 C.3       10 UNK         0.0862 
     19 C         -73.3849   29.0821  -71.9663 C.2       10 UNK         0.5551 
     20 N         -73.5507   27.8138  -72.3234 N.am      10 UNK        -0.7319 
     21 O         -73.2788   29.3741  -70.7780 O.2       10 UNK        -0.5018 
     22 N         -73.2287   29.6862  -74.4278 N.am      10 UNK        -0.4509 
     23 C         -72.4253   30.1753  -75.3797 C.2       10 UNK         0.4899 
     24 O         -71.7133   31.1707  -75.2304 O.2       10 UNK        -0.4839 
     25 CA        -72.4078   29.4115  -76.7174 C.3       9 UNK         0.0222 
     26 CB        -71.3614   29.9523  -77.7145 C.3       9 UNK        -0.1966 
     27 N         -72.2554   27.9625  -76.5422 N.am      9 UNK        -0.4218 
     28 C         -71.2489   27.2923  -75.9586 C.2       9 UNK         0.5020 
     29 O         -70.2433   27.8303  -75.4934 O.2       9 UNK        -0.5274 
     30 CA        -71.3768   25.7559  -75.8643 C.3       8 UNK         0.0270 
     31 CB        -71.6083   25.3177  -74.4086 C.3       8 UNK        -0.1976 
     32 N         -72.4422   25.1963  -76.7025 N.am      8 UNK        -0.4313 
     33 C         -72.3794   25.0691  -78.0355 C.2       8 UNK         0.5041 
     34 O         -71.3721   25.3127  -78.7007 O.2       8 UNK        -0.5577 
     35 CA        -73.6755   24.6483  -78.7518 C.3       7 UNK         0.0284 
     36 CB        -73.8296   23.1192  -78.7549 C.3       7 UNK        -0.1958 
     37 N         -74.8700   25.2705  -78.1694 N.am      7 UNK        -0.4454 
     38 C         -75.1088   26.5907  -78.1592 C.2       7 UNK         0.5089 
     39 O         -74.3829   27.4206  -78.7041 O.2       7 UNK        -0.5125 
     40 CA        -76.3224   27.0803  -77.3567 C.3       6 UNK         0.0408 
     41 CB        -77.6107   26.9640  -78.1859 C.3       6 UNK        -0.1791 
     42 N         -76.4780   26.3621  -76.0923 N.am      6 UNK        -0.4762 
     43 C         -75.6446   26.4407  -75.0444 C.2       6 UNK         0.5007 
     44 O         -74.6655   27.1867  -74.9930 O.2       6 UNK        -0.5032 
     45 CA        -75.9461   25.5100  -73.8547 C.3       5 UNK         0.0783 
     46 C46       -76.9615   26.1807  -72.9059 C.3       11 UNK        -0.0857 
     47 S47       -77.3516   25.1877  -71.4223 S.3       11 UNK        -0.2512 
     48 C48       -76.9595   26.3256  -70.0505 C.3       11 UNK         0.0225 
     49 N         -76.3871   24.1908  -74.3089 N.am      5 UNK        -0.4615 
     50 C         -75.6111   23.3103  -74.9524 C.2       4 UNK         0.5053 
     51 O         -74.4232   23.5065  -75.2100 O.2       4 UNK        -0.5105 
     52 CA        -76.2914   22.0132  -75.4210 C.3       4 UNK         0.0263 
     53 CB        -76.3308   20.9825  -74.2819 C.3       4 UNK        -0.1981 
     54 N         -77.6493   22.2427  -75.9252 N.am      4 UNK        -0.4224 
     55 C         -77.9295   22.9310  -77.0414 C.2       3 UNK         0.4895 
     56 O         -77.0706   23.4000  -77.7879 O.2       3 UNK        -0.5091 
     57 CA        -79.4165   23.1808  -77.3528 C.3       3 UNK         0.0250 
     58 CB        -80.0276   21.9703  -78.0763 C.3       3 UNK        -0.1996 
     59 N         -80.2301   23.5174  -76.1762 N.am      3 UNK        -0.4254 
     60 C         -80.0032   24.5615  -75.3666 C.2       2 UNK         0.5004 
     61 O         -79.0398   25.3185  -75.4928 O.2       2 UNK        -0.5226 
     62 CA        -80.9838   24.7609  -74.1968 C.3       2 UNK         0.0269 
     63 CB        -80.7107   23.7316  -73.0874 C.3       2 UNK        -0.1926 
     64 N         -80.8856   26.1065  -73.6209 N.am      2 UNK        -0.4687 
     65 C         -81.3229   27.2238  -74.2172 C.2       1 UNK         0.5165 
     66 O         -81.9480   27.2303  -75.2812 O.2       1 UNK        -0.5079 
     67 H67       -78.1576   28.9221  -73.8775 H         1 UNK         0.0900 
     68 H68       -78.6350   27.9126  -75.2530 H         1 UNK         0.0900 
     69 H69       -77.5748   29.2989  -75.4896 H         1 UNK         0.0900 
     70 H70       -81.5681   30.2041  -74.6810 H         1 UNK         0.2959 
     71 H71       -80.1253   28.4249  -72.8953 H         1 UNK         0.1079 
     72 H72       -83.1461   28.8645  -73.0265 H         1 UNK         0.0837 
     73 H73       -82.0902   30.0321  -72.2929 H         1 UNK         0.0837 
     74 H74       -81.5322   30.1373  -69.9741 H         1 UNK         0.0685 
     75 H75       -81.3643   28.8082  -68.8582 H         1 UNK         0.0685 
     76 H76       -79.5968   26.9208  -69.6124 H         1 UNK         0.1434 
     77 H77       -75.8918   28.6974  -70.8099 H         1 UNK         0.1329 
     78 H78       -79.4818   31.0296  -70.8575 H         1 UNK         0.1335 
     79 H79       -77.3961   32.0693  -71.4666 H         1 UNK         0.0680 
     80 H80       -75.9966   31.3793  -70.6831 H         1 UNK         0.0680 
     81 H81       -74.1179   32.1260  -73.5917 H         1 UNK         0.1032 
     82 H82       -74.1725   31.8168  -71.8921 H         1 UNK         0.1032 
     83 H83       -72.3106   30.6349  -72.8356 H         1 UNK         0.0461 
     84 H84       -73.6743   27.5606  -73.2934 H         1 UNK         0.3453 
     85 H85       -73.5704   27.1089  -71.6050 H         1 UNK         0.3453 
     86 H86       -73.7961   28.8695  -74.6342 H         1 UNK         0.2984 
     87 H87       -73.3924   29.5605  -77.1626 H         1 UNK         0.0554 
     88 H88       -71.4035   29.4139  -78.6613 H         1 UNK         0.0847 
     89 H89       -70.3467   29.8668  -77.3243 H         1 UNK         0.0847 
     90 H90       -71.5381   31.0060  -77.9334 H         1 UNK         0.0847 
     91 H91       -73.0378   27.4150  -76.8759 H         1 UNK         0.3141 
     92 H92       -70.4251   25.3351  -76.1955 H         1 UNK         0.0743 
     93 H93       -72.5638   25.6751  -74.0272 H         1 UNK         0.0784 
     94 H94       -71.6000   24.2313  -74.3169 H         1 UNK         0.0784 
     95 H95       -70.8283   25.7046  -73.7515 H         1 UNK         0.0784 
     96 H96       -73.2840   24.8857  -76.2266 H         1 UNK         0.3213 
     97 H97       -73.6022   24.9837  -79.7886 H         1 UNK         0.0855 
     98 H98       -73.9182   22.7180  -77.7455 H         1 UNK         0.0814 
     99 H99       -72.9666   22.6419  -79.2208 H         1 UNK         0.0814 
    100 H100      -74.7125   22.8110  -79.3153 H         1 UNK         0.0814 
    101 H101      -75.5644   24.6473  -77.7653 H         1 UNK         0.3105 
    102 H102      -76.1622   28.1350  -77.1241 H         1 UNK         0.0547 
    103 H103      -77.5282   27.5310  -79.1139 H         1 UNK         0.0837 
    104 H104      -77.8276   25.9303  -78.4544 H         1 UNK         0.0837 
    105 H105      -78.4720   27.3541  -77.6440 H         1 UNK         0.0837 
    106 H106      -77.3064   25.7768  -75.9989 H         1 UNK         0.3020 
    107 H107      -75.0115   25.3708  -73.3073 H         1 UNK         0.1245 
    108 H108      -77.9019   26.3837  -73.4177 H         1 UNK         0.0781 
    109 H109      -76.5681   27.1514  -72.6115 H         1 UNK         0.0781 
    110 H110      -75.8783   26.4645  -70.0011 H         1 UNK         0.0836 
    111 H111      -77.2517   25.8620  -69.1073 H         1 UNK         0.0836 
    112 H112      -77.3627   23.9764  -74.1685 H         1 UNK         0.3022 
    113 H113      -75.6928   21.6001  -76.2358 H         1 UNK         0.0747 
    114 H114      -76.7424   20.0317  -74.6212 H         1 UNK         0.0793 
    115 H115      -75.3270   20.7825  -73.9039 H         1 UNK         0.0793 
    116 H116      -76.9325   21.3289  -73.4406 H         1 UNK         0.0793 
    117 H117      -78.4152   21.8883  -75.3714 H         1 UNK         0.3047 
    118 H118      -79.4624   24.0363  -78.0299 H         1 UNK         0.0822 
    119 H119      -80.0548   21.0864  -77.4378 H         1 UNK         0.0807 
    120 H120      -79.4478   21.7132  -78.9642 H         1 UNK         0.0807 
    121 H121      -81.0455   22.1777  -78.4071 H         1 UNK         0.0807 
    122 H122      -81.0333   22.9303  -76.0011 H         1 UNK         0.2946 
    123 H123      -81.9997   24.6199  -74.5731 H         1 UNK         0.1144 
    124 H124      -81.3961   23.8611  -72.2494 H         1 UNK         0.0793 
    125 H125      -79.6940   23.8119  -72.7021 H         1 UNK         0.0793 
    126 H126      -80.8407   22.7118  -73.4516 H         1 UNK         0.0793 
    127 H127      -80.3898   26.1819  -72.7445 H         1 UNK         0.2896 
@<TRIPOS>BOND
     1    1    2 1    
     2    1   67 1    
     3    1   68 1    
     4    1   69 1    
     5    2    3 2    
     6    2    4 am   BACKBONE|DICT|INTERRES
     7    4    5 1    
     8    4   70 1    
     9    5    6 1    
    10    5   65 1    
    11    5   71 1    
    12    6    7 1    
    13    6   72 1    
    14    6   73 1    
    15    7    8 1    
    16    8    9 1    
    17    8   74 1    
    18    8   75 1    
    19    9   10 ar   
    20    9   14 ar   
    21   10   11 ar   
    22   10   76 1    
    23   11   12 ar   
    24   11   48 1    
    25   12   13 ar   
    26   12   77 1    
    27   13   14 ar   
    28   13   15 1    
    29   14   78 1    
    30   15   16 1    
    31   15   79 1    
    32   15   80 1    
    33   16   17 1    
    34   17   18 1    
    35   17   81 1    
    36   17   82 1    
    37   18   19 1    
    38   18   22 1    
    39   18   83 1    
    40   19   20 am   BACKBONE|DICT|INTERRES
    41   19   21 2    
    42   20   84 1    
    43   20   85 1    
    44   22   23 am   BACKBONE|DICT|INTERRES
    45   22   86 1    
    46   23   24 2    
    47   23   25 1    
    48   25   26 1    
    49   25   27 1    
    50   25   87 1    
    51   26   88 1    
    52   26   89 1    
    53   26   90 1    
    54   27   28 am   BACKBONE|DICT|INTERRES
    55   27   91 1    
    56   28   29 2    
    57   28   30 1    
    58   30   31 1    
    59   30   32 1    
    60   30   92 1    
    61   31   93 1    
    62   31   94 1    
    63   31   95 1    
    64   32   33 am   BACKBONE|DICT|INTERRES
    65   32   96 1    
    66   33   34 2    
    67   33   35 1    
    68   35   36 1    
    69   35   37 1    
    70   35   97 1    
    71   36   98 1    
    72   36   99 1    
    73   36  100 1    
    74   37   38 am   BACKBONE|DICT|INTERRES
    75   37  101 1    
    76   38   39 2    
    77   38   40 1    
    78   40   41 1    
    79   40   42 1    
    80   40  102 1    
    81   41  103 1    
    82   41  104 1    
    83   41  105 1    
    84   42   43 am   BACKBONE|DICT|INTERRES
    85   42  106 1    
    86   43   44 2    
    87   43   45 1    
    88   45   46 1    
    89   45   49 1    
    90   45  107 1    
    91   46   47 1    
    92   46  108 1    
    93   46  109 1    
    94   47   48 1    
    95   48  110 1    
    96   48  111 1    
    97   49   50 am   BACKBONE|DICT|INTERRES
    98   49  112 1    
    99   50   51 2    
   100   50   52 1    
   101   52   53 1    
   102   52   54 1    
   103   52  113 1    
   104   53  114 1    
   105   53  115 1    
   106   53  116 1    
   107   54   55 am   BACKBONE|DICT|INTERRES
   108   54  117 1    
   109   55   56 2    
   110   55   57 1    
   111   57   58 1    
   112   57   59 1    
   113   57  118 1    
   114   58  119 1    
   115   58  120 1    
   116   58  121 1    
   117   59   60 am   BACKBONE|DICT|INTERRES
   118   59  122 1    
   119   60   61 2    
   120   60   62 1    
   121   62   63 1    
   122   62   64 1    
   123   62  123 1    
   124   63  124 1    
   125   63  125 1    
   126   63  126 1    
   127   64   65 am   BACKBONE|DICT|INTERRES
   128   64  127 1    
   129   65   66 2    
@<TRIPOS>SUBSTRUCTURE
     1 UNK         1 GROUP             0       ****    0 ROOT    
