@<TRIPOS>MOLECULE
3R135
127   129    1
SMALL
USER_CHARGES


@<TRIPOS>ATOM
      1 CA        -79.2824   21.5975  -70.2940 C.3       0 UNK        -0.1998 
      2 C         -80.2668   22.7117  -70.6149 C.2       0 UNK         0.4909 
      3 O         -81.4722   22.4658  -70.6831 O.2       0 UNK        -0.5240 
      4 N         -79.7661   23.9374  -70.8181 N.am      1 UNK        -0.4739 
      5 CA        -80.5482   25.1297  -71.1661 C.3       1 UNK         0.0864 
      6 C6        -79.8140   26.4227  -70.7168 C.3       11 UNK        -0.0881 
      7 S7        -80.9375   27.7773  -70.2331 S.3       11 UNK        -0.2682 
      8 C8        -80.9858   28.8284  -71.7311 C.3       11 UNK         0.0289 
      9 C9        -79.7002   29.5726  -72.1120 C.ar      11 UNK        -0.0687 
     10 C10       -79.7399   30.4090  -73.2335 C.ar      11 UNK        -0.0823 
     11 C11       -78.6035   31.1057  -73.6578 C.ar      11 UNK        -0.0830 
     12 C12       -77.4066   30.9535  -72.9540 C.ar      11 UNK        -0.1021 
     13 C13       -77.3434   30.1136  -71.8402 C.ar      11 UNK        -0.0753 
     14 C14       -78.4935   29.4469  -71.4093 C.ar      11 UNK        -0.0933 
     15 C15       -76.0199   29.8907  -71.1305 C.3       11 UNK         0.0166 
     16 S16       -75.1948   28.4269  -71.8199 S.3       11 UNK        -0.2615 
     17 C17       -73.5298   28.5756  -71.0886 C.3       11 UNK        -0.0865 
     18 CA        -72.5456   29.4219  -71.9432 C.3       10 UNK         0.0862 
     19 C         -71.1205   29.3834  -71.3155 C.2       10 UNK         0.5551 
     20 N         -70.1337   28.7493  -71.9397 N.am      10 UNK        -0.7319 
     21 O         -70.9120   29.9379  -70.2394 O.2       10 UNK        -0.5018 
     22 N         -72.6029   29.0518  -73.3643 N.am      10 UNK        -0.4509 
     23 C         -72.0480   29.7238  -74.3809 C.2       10 UNK         0.4899 
     24 O         -71.4716   30.8050  -74.2550 O.2       10 UNK        -0.4839 
     25 CA        -72.1630   29.0676  -75.7721 C.3       9 UNK         0.0222 
     26 CB        -71.0044   29.4526  -76.7154 C.3       9 UNK        -0.1966 
     27 N         -72.3310   27.6086  -75.7098 N.am      9 UNK        -0.4218 
     28 C         -71.4775   26.7130  -75.1873 C.2       9 UNK         0.5020 
     29 O         -70.3754   27.0044  -74.7198 O.2       9 UNK        -0.5274 
     30 CA        -71.9492   25.2534  -75.1207 C.3       8 UNK         0.0270 
     31 CB        -72.5514   24.9602  -73.7346 C.3       8 UNK        -0.1976 
     32 N         -72.9472   24.9460  -76.1501 N.am      8 UNK        -0.4313 
     33 C         -72.7236   24.1708  -77.2181 C.2       8 UNK         0.5041 
     34 O         -71.6426   23.6329  -77.4634 O.2       8 UNK        -0.5577 
     35 CA        -73.9061   23.9312  -78.1706 C.3       7 UNK         0.0284 
     36 CB        -74.8133   22.8107  -77.6363 C.3       7 UNK        -0.1958 
     37 N         -74.7117   25.1243  -78.4422 N.am      7 UNK        -0.4454 
     38 C         -74.3060   26.1530  -79.2016 C.2       7 UNK         0.5089 
     39 O         -73.1676   26.2623  -79.6571 O.2       7 UNK        -0.5125 
     40 CA        -75.3520   27.2274  -79.5362 C.3       6 UNK         0.0408 
     41 CB        -76.3377   26.7077  -80.5961 C.3       6 UNK        -0.1791 
     42 N         -76.0933   27.6342  -78.3444 N.am      6 UNK        -0.4762 
     43 C         -75.8466   28.7432  -77.6309 C.2       6 UNK         0.5007 
     44 O         -75.0148   29.5908  -77.9543 O.2       6 UNK        -0.5032 
     45 CA        -76.6543   28.9337  -76.3248 C.3       5 UNK         0.0783 
     46 C46       -77.8704   29.8736  -76.5521 C.3       11 UNK        -0.0857 
     47 S47       -77.4615   31.6098  -76.1710 S.3       11 UNK        -0.2512 
     48 C48       -78.6774   32.0240  -74.8736 C.3       11 UNK         0.0225 
     49 N         -77.0679   27.6663  -75.7149 N.am      5 UNK        -0.4615 
     50 C         -76.2464   26.6857  -75.3171 C.2       4 UNK         0.5053 
     51 O         -75.0193   26.7427  -75.3882 O.2       4 UNK        -0.5105 
     52 CA        -76.9090   25.3864  -74.8376 C.3       4 UNK         0.0263 
     53 CB        -77.0769   25.4125  -73.3146 C.3       4 UNK        -0.1981 
     54 N         -78.2013   25.1261  -75.4868 N.am      4 UNK        -0.4224 
     55 C         -78.3516   24.8950  -76.8018 C.2       3 UNK         0.4895 
     56 O         -77.4101   24.9411  -77.5966 O.2       3 UNK        -0.5091 
     57 CA        -79.7657   24.6267  -77.3564 C.3       3 UNK         0.0250 
     58 CB        -79.7877   23.3846  -78.2717 C.3       3 UNK        -0.1996 
     59 N         -80.8368   24.5694  -76.3511 N.am      3 UNK        -0.4254 
     60 C         -81.0226   23.6533  -75.3895 C.2       2 UNK         0.5004 
     61 O         -80.2984   22.6735  -75.2048 O.2       2 UNK        -0.5226 
     62 CA        -82.2048   23.9099  -74.4379 C.3       2 UNK         0.0269 
     63 CB        -83.1883   22.7277  -74.4493 C.3       2 UNK        -0.1926 
     64 N         -81.7587   24.1519  -73.0635 N.am      2 UNK        -0.4687 
     65 C         -80.9073   25.1095  -72.6705 C.2       1 UNK         0.5165 
     66 O         -80.3885   25.9111  -73.4509 O.2       1 UNK        -0.5079 
     67 H67       -79.5153   21.1593  -69.3240 H         1 UNK         0.0900 
     68 H68       -79.3469   20.8128  -71.0473 H         1 UNK         0.0900 
     69 H69       -78.2539   21.9569  -70.2659 H         1 UNK         0.0900 
     70 H70       -78.7665   24.0722  -70.7674 H         1 UNK         0.2959 
     71 H71       -81.4904   25.0765  -70.6150 H         1 UNK         0.1079 
     72 H72       -79.2149   26.2150  -69.8287 H         1 UNK         0.0837 
     73 H73       -79.1004   26.7691  -71.4603 H         1 UNK         0.0837 
     74 H74       -81.3057   28.2190  -72.5763 H         1 UNK         0.0685 
     75 H75       -81.7723   29.5692  -71.5807 H         1 UNK         0.0685 
     76 H76       -80.6667   30.5162  -73.7809 H         1 UNK         0.1434 
     77 H77       -76.5182   31.4721  -73.2881 H         1 UNK         0.1329 
     78 H78       -78.4234   28.8117  -70.5392 H         1 UNK         0.1335 
     79 H79       -76.1773   29.7548  -70.0594 H         1 UNK         0.0680 
     80 H80       -75.3774   30.7650  -71.2467 H         1 UNK         0.0680 
     81 H81       -73.6158   28.9883  -70.0814 H         1 UNK         0.1032 
     82 H82       -73.1425   27.5624  -70.9632 H         1 UNK         0.1032 
     83 H83       -72.8735   30.4613  -71.8847 H         1 UNK         0.0461 
     84 H84       -69.2163   28.7327  -71.5233 H         1 UNK         0.3453 
     85 H85       -70.2932   28.2925  -72.8279 H         1 UNK         0.3453 
     86 H86       -73.0903   28.1926  -73.5702 H         1 UNK         0.2984 
     87 H87       -73.0827   29.4586  -76.2046 H         1 UNK         0.0554 
     88 H88       -71.1192   28.9849  -77.6932 H         1 UNK         0.0847 
     89 H89       -70.0360   29.1559  -76.3115 H         1 UNK         0.0847 
     90 H90       -70.9723   30.5308  -76.8760 H         1 UNK         0.0847 
     91 H91       -73.2583   27.2740  -75.9530 H         1 UNK         0.3141 
     92 H92       -71.0662   24.6229  -75.2431 H         1 UNK         0.0743 
     93 H93       -73.4300   25.5734  -73.5312 H         1 UNK         0.0784 
     94 H94       -72.8467   23.9147  -73.6462 H         1 UNK         0.0784 
     95 H95       -71.8263   25.1590  -72.9441 H         1 UNK         0.0784 
     96 H96       -73.8589   25.3788  -76.0346 H         1 UNK         0.3213 
     97 H97       -73.4901   23.5928  -79.1224 H         1 UNK         0.0855 
     98 H98       -75.2813   23.0826  -76.6904 H         1 UNK         0.0814 
     99 H99       -74.2448   21.8952  -77.4674 H         1 UNK         0.0814 
    100 H100      -75.6079   22.5726  -78.3438 H         1 UNK         0.0814 
    101 H101      -75.6813   25.0953  -78.1312 H         1 UNK         0.3105 
    102 H102      -74.8268   28.0835  -79.9651 H         1 UNK         0.0547 
    103 H103      -77.0446   27.4832  -80.8909 H         1 UNK         0.0837 
    104 H104      -75.8103   26.3918  -81.4972 H         1 UNK         0.0837 
    105 H105      -76.9116   25.8522  -80.2374 H         1 UNK         0.0837 
    106 H106      -76.7687   26.9696  -77.9870 H         1 UNK         0.3020 
    107 H107      -75.9748   29.3935  -75.6028 H         1 UNK         0.1245 
    108 H108      -78.7111   29.5734  -75.9256 H         1 UNK         0.0781 
    109 H109      -78.2507   29.8158  -77.5742 H         1 UNK         0.0781 
    110 H110      -79.6753   32.0061  -75.3147 H         1 UNK         0.0836 
    111 H111      -78.5069   33.0511  -74.5485 H         1 UNK         0.0836 
    112 H112      -78.0606   27.5208  -75.6072 H         1 UNK         0.3022 
    113 H113      -76.2422   24.5602  -75.0889 H         1 UNK         0.0747 
    114 H114      -77.5990   24.5279  -72.9506 H         1 UNK         0.0793 
    115 H115      -76.1064   25.4497  -72.8176 H         1 UNK         0.0793 
    116 H116      -77.6310   26.2956  -73.0015 H         1 UNK         0.0793 
    117 H117      -79.0230   25.1342  -74.8925 H         1 UNK         0.3047 
    118 H118      -79.9980   25.4906  -77.9809 H         1 UNK         0.0822 
    119 H119      -79.4948   22.4802  -77.7378 H         1 UNK         0.0807 
    120 H120      -79.0965   23.5017  -79.1074 H         1 UNK         0.0807 
    121 H121      -80.7786   23.2197  -78.6946 H         1 UNK         0.0807 
    122 H122      -81.4770   25.3518  -76.3764 H         1 UNK         0.2946 
    123 H123      -82.7424   24.8007  -74.7699 H         1 UNK         0.1144 
    124 H124      -83.5441   22.5253  -75.4605 H         1 UNK         0.0793 
    125 H125      -82.7238   21.8133  -74.0776 H         1 UNK         0.0793 
    126 H126      -84.0639   22.9330  -73.8332 H         1 UNK         0.0793 
    127 H127      -82.0499   23.4786  -72.3622 H         1 UNK         0.2896 
@<TRIPOS>BOND
     1    1    2 1    
     2    1   67 1    
     3    1   68 1    
     4    1   69 1    
     5    2    3 2    
     6    2    4 am   BACKBONE|DICT|INTERRES
     7    4    5 1    
     8    4   70 1    
     9    5    6 1    
    10    5   65 1    
    11    5   71 1    
    12    6    7 1    
    13    6   72 1    
    14    6   73 1    
    15    7    8 1    
    16    8    9 1    
    17    8   74 1    
    18    8   75 1    
    19    9   10 ar   
    20    9   14 ar   
    21   10   11 ar   
    22   10   76 1    
    23   11   12 ar   
    24   11   48 1    
    25   12   13 ar   
    26   12   77 1    
    27   13   14 ar   
    28   13   15 1    
    29   14   78 1    
    30   15   16 1    
    31   15   79 1    
    32   15   80 1    
    33   16   17 1    
    34   17   18 1    
    35   17   81 1    
    36   17   82 1    
    37   18   19 1    
    38   18   22 1    
    39   18   83 1    
    40   19   20 am   BACKBONE|DICT|INTERRES
    41   19   21 2    
    42   20   84 1    
    43   20   85 1    
    44   22   23 am   BACKBONE|DICT|INTERRES
    45   22   86 1    
    46   23   24 2    
    47   23   25 1    
    48   25   26 1    
    49   25   27 1    
    50   25   87 1    
    51   26   88 1    
    52   26   89 1    
    53   26   90 1    
    54   27   28 am   BACKBONE|DICT|INTERRES
    55   27   91 1    
    56   28   29 2    
    57   28   30 1    
    58   30   31 1    
    59   30   32 1    
    60   30   92 1    
    61   31   93 1    
    62   31   94 1    
    63   31   95 1    
    64   32   33 am   BACKBONE|DICT|INTERRES
    65   32   96 1    
    66   33   34 2    
    67   33   35 1    
    68   35   36 1    
    69   35   37 1    
    70   35   97 1    
    71   36   98 1    
    72   36   99 1    
    73   36  100 1    
    74   37   38 am   BACKBONE|DICT|INTERRES
    75   37  101 1    
    76   38   39 2    
    77   38   40 1    
    78   40   41 1    
    79   40   42 1    
    80   40  102 1    
    81   41  103 1    
    82   41  104 1    
    83   41  105 1    
    84   42   43 am   BACKBONE|DICT|INTERRES
    85   42  106 1    
    86   43   44 2    
    87   43   45 1    
    88   45   46 1    
    89   45   49 1    
    90   45  107 1    
    91   46   47 1    
    92   46  108 1    
    93   46  109 1    
    94   47   48 1    
    95   48  110 1    
    96   48  111 1    
    97   49   50 am   BACKBONE|DICT|INTERRES
    98   49  112 1    
    99   50   51 2    
   100   50   52 1    
   101   52   53 1    
   102   52   54 1    
   103   52  113 1    
   104   53  114 1    
   105   53  115 1    
   106   53  116 1    
   107   54   55 am   BACKBONE|DICT|INTERRES
   108   54  117 1    
   109   55   56 2    
   110   55   57 1    
   111   57   58 1    
   112   57   59 1    
   113   57  118 1    
   114   58  119 1    
   115   58  120 1    
   116   58  121 1    
   117   59   60 am   BACKBONE|DICT|INTERRES
   118   59  122 1    
   119   60   61 2    
   120   60   62 1    
   121   62   63 1    
   122   62   64 1    
   123   62  123 1    
   124   63  124 1    
   125   63  125 1    
   126   63  126 1    
   127   64   65 am   BACKBONE|DICT|INTERRES
   128   64  127 1    
   129   65   66 2    
@<TRIPOS>SUBSTRUCTURE
     1 UNK         1 GROUP             0       ****    0 ROOT    
