@<TRIPOS>MOLECULE
3R135
127   129    1
SMALL
USER_CHARGES


@<TRIPOS>ATOM
      1 CA        -83.2585   25.2722  -72.7039 C.3       0 UNK        -0.1998 
      2 C         -82.0699   26.1903  -72.4334 C.2       0 UNK         0.4909 
      3 O         -81.3396   25.9572  -71.4737 O.2       0 UNK        -0.5240 
      4 N         -81.8351   27.2450  -73.2261 N.am      1 UNK        -0.4739 
      5 CA        -82.5495   27.6358  -74.4414 C.3       1 UNK         0.0864 
      6 C6        -82.4558   29.1685  -74.6873 C.3       11 UNK        -0.0881 
      7 S7        -80.7650   29.8715  -74.7566 S.3       11 UNK        -0.2682 
      8 C8        -80.4308   30.3433  -73.0278 C.3       11 UNK         0.0289 
      9 C9        -79.0819   29.8023  -72.5706 C.ar      11 UNK        -0.0687 
     10 C10       -79.0119   28.6602  -71.7660 C.ar      11 UNK        -0.0823 
     11 C11       -77.7754   28.1417  -71.3729 C.ar      11 UNK        -0.0830 
     12 C12       -76.6059   28.7907  -71.7690 C.ar      11 UNK        -0.1021 
     13 C13       -76.6526   29.9331  -72.5717 C.ar      11 UNK        -0.0753 
     14 C14       -77.8980   30.4360  -72.9656 C.ar      11 UNK        -0.0933 
     15 C15       -75.3674   30.5834  -73.0749 C.3       11 UNK         0.0166 
     16 S16       -74.2522   31.1420  -71.7447 S.3       11 UNK        -0.2615 
     17 C17       -73.1034   29.7300  -71.5383 C.3       11 UNK        -0.0865 
     18 CA        -71.8404   29.8424  -72.4337 C.3       10 UNK         0.0862 
     19 C         -70.6957   28.8943  -71.9640 C.2       10 UNK         0.5551 
     20 N         -70.0144   28.1702  -72.8453 N.am      10 UNK        -0.7319 
     21 O         -70.4038   28.8245  -70.7727 O.2       10 UNK        -0.5018 
     22 N         -72.1876   29.6604  -73.8509 N.am      10 UNK        -0.4509 
     23 C         -71.6943   30.3816  -74.8632 C.2       10 UNK         0.4899 
     24 O         -70.9292   31.3368  -74.7184 O.2       10 UNK        -0.4839 
     25 CA        -72.1255   29.9443  -76.2771 C.3       9 UNK         0.0222 
     26 CB        -71.2884   30.6052  -77.3925 C.3       9 UNK        -0.1966 
     27 N         -72.1525   28.4857  -76.4524 N.am      9 UNK        -0.4218 
     28 C         -71.1358   27.6256  -76.2735 C.2       9 UNK         0.5020 
     29 O         -70.0175   27.9711  -75.8890 O.2       9 UNK        -0.5274 
     30 CA        -71.3899   26.1244  -76.5228 C.3       8 UNK         0.0270 
     31 CB        -71.1464   25.3206  -75.2334 C.3       8 UNK        -0.1976 
     32 N         -72.7322   25.8169  -77.0208 N.am      8 UNK        -0.4313 
     33 C         -73.1769   26.0384  -78.2648 C.2       8 UNK         0.5041 
     34 O         -72.4699   26.4561  -79.1821 O.2       8 UNK        -0.5577 
     35 CA        -74.6818   25.8119  -78.5060 C.3       7 UNK         0.0284 
     36 CB        -74.9636   24.3456  -78.8685 C.3       7 UNK        -0.1958 
     37 N         -75.5074   26.2116  -77.3586 N.am      7 UNK        -0.4454 
     38 C         -75.5829   27.4644  -76.8823 C.2       7 UNK         0.5089 
     39 O         -75.0021   28.4243  -77.3874 O.2       7 UNK        -0.5125 
     40 CA        -76.3867   27.6747  -75.5944 C.3       6 UNK         0.0408 
     41 CB        -77.8815   27.8033  -75.8957 C.3       6 UNK        -0.1791 
     42 N         -76.1650   26.5922  -74.6390 N.am      6 UNK        -0.4762 
     43 C         -75.0587   26.4536  -73.8945 C.2       6 UNK         0.5007 
     44 O         -74.1207   27.2550  -73.9032 O.2       6 UNK        -0.5032 
     45 CA        -74.9606   25.1749  -73.0344 C.3       5 UNK         0.0783 
     46 C46       -75.5353   25.3664  -71.6068 C.3       11 UNK        -0.0857 
     47 S47       -77.3653   25.3974  -71.5216 S.3       11 UNK        -0.2512 
     48 C48       -77.7021   26.8832  -70.5199 C.3       11 UNK         0.0225 
     49 N         -75.5353   24.0004  -73.6997 N.am      5 UNK        -0.4615 
     50 C         -75.0780   23.4648  -74.8381 C.2       4 UNK         0.5053 
     51 O         -74.0876   23.8825  -75.4340 O.2       4 UNK        -0.5105 
     52 CA        -75.8717   22.2907  -75.4358 C.3       4 UNK         0.0263 
     53 CB        -75.2959   20.9537  -74.9439 C.3       4 UNK        -0.1981 
     54 N         -77.3121   22.3325  -75.1624 N.am      4 UNK        -0.4224 
     55 C         -78.1462   23.3082  -75.5481 C.2       3 UNK         0.4895 
     56 O         -77.7856   24.3303  -76.1395 O.2       3 UNK        -0.5091 
     57 CA        -79.6194   23.1084  -75.1725 C.3       3 UNK         0.0250 
     58 CB        -79.8482   23.4051  -73.6794 C.3       3 UNK        -0.1996 
     59 N         -80.4689   23.9881  -75.9705 N.am      3 UNK        -0.4254 
     60 C         -81.7160   23.7162  -76.3715 C.2       2 UNK         0.5004 
     61 O         -82.2927   22.6527  -76.1353 O.2       2 UNK        -0.5226 
     62 CA        -82.4650   24.8503  -77.1038 C.3       2 UNK         0.0269 
     63 CB        -83.7113   24.3453  -77.8550 C.3       2 UNK        -0.1926 
     64 N         -82.8726   25.8929  -76.1552 N.am      2 UNK        -0.4687 
     65 C         -82.0282   26.7815  -75.6150 C.2       1 UNK         0.5165 
     66 O         -80.8561   26.8829  -75.9745 O.2       1 UNK        -0.5079 
     67 H67       -84.1896   25.8333  -72.7728 H         1 UNK         0.0900 
     68 H68       -83.1114   24.7036  -73.6207 H         1 UNK         0.0900 
     69 H69       -83.3724   24.5552  -71.8910 H         1 UNK         0.0900 
     70 H70       -80.9997   27.7882  -73.0646 H         1 UNK         0.2959 
     71 H71       -83.6108   27.4178  -74.3136 H         1 UNK         0.1079 
     72 H72       -82.9580   29.4215  -75.6228 H         1 UNK         0.0837 
     73 H73       -83.0177   29.6952  -73.9144 H         1 UNK         0.0837 
     74 H74       -80.4387   31.4313  -72.9483 H         1 UNK         0.0685 
     75 H75       -81.2250   29.9850  -72.3714 H         1 UNK         0.0685 
     76 H76       -79.9172   28.1685  -71.4419 H         1 UNK         0.1434 
     77 H77       -75.6568   28.3890  -71.4621 H         1 UNK         0.1329 
     78 H78       -77.9510   31.3093  -73.6013 H         1 UNK         0.1335 
     79 H79       -74.8441   29.8854  -73.7248 H         1 UNK         0.0680 
     80 H80       -75.6029   31.4490  -73.6957 H         1 UNK         0.0680 
     81 H81       -72.8278   29.7138  -70.4823 H         1 UNK         0.1032 
     82 H82       -73.6023   28.7820  -71.7272 H         1 UNK         0.1032 
     83 H83       -71.4394   30.8476  -72.2922 H         1 UNK         0.0461 
     84 H84       -69.2737   27.5723  -72.5161 H         1 UNK         0.3453 
     85 H85       -70.1913   28.2488  -73.8394 H         1 UNK         0.3453 
     86 H86       -72.7869   28.8672  -74.0551 H         1 UNK         0.2984 
     87 H87       -73.1557   30.2829  -76.3949 H         1 UNK         0.0554 
     88 H88       -71.3603   31.6925  -77.3451 H         1 UNK         0.0847 
     89 H89       -71.6354   30.3019  -78.3803 H         1 UNK         0.0847 
     90 H90       -70.2323   30.3450  -77.3133 H         1 UNK         0.0847 
     91 H91       -73.0449   28.1138  -76.7580 H         1 UNK         0.3141 
     92 H92       -70.6658   25.7967  -77.2713 H         1 UNK         0.0743 
     93 H93       -71.8311   25.6197  -74.4389 H         1 UNK         0.0784 
     94 H94       -71.2749   24.2511  -75.4016 H         1 UNK         0.0784 
     95 H95       -70.1316   25.4678  -74.8615 H         1 UNK         0.0784 
     96 H96       -73.3640   25.3685  -76.3606 H         1 UNK         0.3213 
     97 H97       -74.9784   26.4346  -79.3529 H         1 UNK         0.0855 
     98 H98       -74.6116   23.6633  -78.0956 H         1 UNK         0.0814 
     99 H99       -74.4545   24.0727  -79.7937 H         1 UNK         0.0814 
    100 H100      -76.0285   24.1670  -79.0185 H         1 UNK         0.0814 
    101 H101      -76.0428   25.4883  -76.8921 H         1 UNK         0.3105 
    102 H102      -76.0607   28.6106  -75.1423 H         1 UNK         0.0547 
    103 H103      -78.0834   28.6792  -76.5129 H         1 UNK         0.0837 
    104 H104      -78.2635   26.9339  -76.4301 H         1 UNK         0.0837 
    105 H105      -78.4597   27.9139  -74.9783 H         1 UNK         0.0837 
    106 H106      -76.8705   25.8685  -74.5999 H         1 UNK         0.3020 
    107 H107      -73.8914   24.9782  -72.9251 H         1 UNK         0.1245 
    108 H108      -75.1114   26.2541  -71.1375 H         1 UNK         0.0781 
    109 H109      -75.2051   24.5359  -70.9810 H         1 UNK         0.0781 
    110 H110      -76.9460   26.9936  -69.7412 H         1 UNK         0.0836 
    111 H111      -78.6491   26.7346  -69.9983 H         1 UNK         0.0836 
    112 H112      -76.3634   23.6107  -73.2737 H         1 UNK         0.3022 
    113 H113      -75.7485   22.3331  -76.5191 H         1 UNK         0.0747 
    114 H114      -75.7759   20.1082  -75.4370 H         1 UNK         0.0793 
    115 H115      -74.2281   20.8865  -75.1585 H         1 UNK         0.0793 
    116 H116      -75.4199   20.8311  -73.8671 H         1 UNK         0.0793 
    117 H117      -77.6958   21.5378  -74.6707 H         1 UNK         0.3047 
    118 H118      -79.8775   22.0676  -75.3805 H         1 UNK         0.0822 
    119 H119      -80.8820   23.2142  -73.3917 H         1 UNK         0.0807 
    120 H120      -79.6239   24.4457  -73.4401 H         1 UNK         0.0807 
    121 H121      -79.2188   22.7810  -73.0441 H         1 UNK         0.0807 
    122 H122      -80.0675   24.8948  -76.1895 H         1 UNK         0.2946 
    123 H123      -81.7817   25.2784  -77.8416 H         1 UNK         0.1144 
    124 H124      -84.1861   25.1484  -78.4188 H         1 UNK         0.0793 
    125 H125      -84.4553   23.9276  -77.1755 H         1 UNK         0.0793 
    126 H126      -83.4457   23.5636  -78.5680 H         1 UNK         0.0793 
    127 H127      -83.8220   25.8390  -75.8150 H         1 UNK         0.2896 
@<TRIPOS>BOND
     1    1    2 1    
     2    1   67 1    
     3    1   68 1    
     4    1   69 1    
     5    2    3 2    
     6    2    4 am   BACKBONE|DICT|INTERRES
     7    4    5 1    
     8    4   70 1    
     9    5    6 1    
    10    5   65 1    
    11    5   71 1    
    12    6    7 1    
    13    6   72 1    
    14    6   73 1    
    15    7    8 1    
    16    8    9 1    
    17    8   74 1    
    18    8   75 1    
    19    9   10 ar   
    20    9   14 ar   
    21   10   11 ar   
    22   10   76 1    
    23   11   12 ar   
    24   11   48 1    
    25   12   13 ar   
    26   12   77 1    
    27   13   14 ar   
    28   13   15 1    
    29   14   78 1    
    30   15   16 1    
    31   15   79 1    
    32   15   80 1    
    33   16   17 1    
    34   17   18 1    
    35   17   81 1    
    36   17   82 1    
    37   18   19 1    
    38   18   22 1    
    39   18   83 1    
    40   19   20 am   BACKBONE|DICT|INTERRES
    41   19   21 2    
    42   20   84 1    
    43   20   85 1    
    44   22   23 am   BACKBONE|DICT|INTERRES
    45   22   86 1    
    46   23   24 2    
    47   23   25 1    
    48   25   26 1    
    49   25   27 1    
    50   25   87 1    
    51   26   88 1    
    52   26   89 1    
    53   26   90 1    
    54   27   28 am   BACKBONE|DICT|INTERRES
    55   27   91 1    
    56   28   29 2    
    57   28   30 1    
    58   30   31 1    
    59   30   32 1    
    60   30   92 1    
    61   31   93 1    
    62   31   94 1    
    63   31   95 1    
    64   32   33 am   BACKBONE|DICT|INTERRES
    65   32   96 1    
    66   33   34 2    
    67   33   35 1    
    68   35   36 1    
    69   35   37 1    
    70   35   97 1    
    71   36   98 1    
    72   36   99 1    
    73   36  100 1    
    74   37   38 am   BACKBONE|DICT|INTERRES
    75   37  101 1    
    76   38   39 2    
    77   38   40 1    
    78   40   41 1    
    79   40   42 1    
    80   40  102 1    
    81   41  103 1    
    82   41  104 1    
    83   41  105 1    
    84   42   43 am   BACKBONE|DICT|INTERRES
    85   42  106 1    
    86   43   44 2    
    87   43   45 1    
    88   45   46 1    
    89   45   49 1    
    90   45  107 1    
    91   46   47 1    
    92   46  108 1    
    93   46  109 1    
    94   47   48 1    
    95   48  110 1    
    96   48  111 1    
    97   49   50 am   BACKBONE|DICT|INTERRES
    98   49  112 1    
    99   50   51 2    
   100   50   52 1    
   101   52   53 1    
   102   52   54 1    
   103   52  113 1    
   104   53  114 1    
   105   53  115 1    
   106   53  116 1    
   107   54   55 am   BACKBONE|DICT|INTERRES
   108   54  117 1    
   109   55   56 2    
   110   55   57 1    
   111   57   58 1    
   112   57   59 1    
   113   57  118 1    
   114   58  119 1    
   115   58  120 1    
   116   58  121 1    
   117   59   60 am   BACKBONE|DICT|INTERRES
   118   59  122 1    
   119   60   61 2    
   120   60   62 1    
   121   62   63 1    
   122   62   64 1    
   123   62  123 1    
   124   63  124 1    
   125   63  125 1    
   126   63  126 1    
   127   64   65 am   BACKBONE|DICT|INTERRES
   128   64  127 1    
   129   65   66 2    
@<TRIPOS>SUBSTRUCTURE
     1 UNK         1 GROUP             0       ****    0 ROOT    
