@<TRIPOS>MOLECULE
3R135
127   129    1
SMALL
USER_CHARGES


@<TRIPOS>ATOM
      1 CA        -80.3495   31.5836  -73.8554 C.3       0 UNK        -0.1998 
      2 C         -79.7895   30.1707  -73.9050 C.2       0 UNK         0.4909 
      3 O         -78.6972   29.9614  -74.4310 O.2       0 UNK        -0.5240 
      4 N         -80.5330   29.1910  -73.3754 N.am      1 UNK        -0.4739 
      5 CA        -80.1319   27.7821  -73.2543 C.3       1 UNK         0.0864 
      6 C6        -80.9154   27.0470  -72.1309 C.3       11 UNK        -0.0881 
      7 S7        -81.0031   27.9602  -70.5522 S.3       11 UNK        -0.2682 
      8 C8        -79.6041   27.2591  -69.6223 C.3       11 UNK         0.0289 
      9 C9        -78.2570   27.7475  -70.1386 C.ar      11 UNK        -0.0687 
     10 C10       -77.3003   26.8337  -70.5919 C.ar      11 UNK        -0.0823 
     11 C11       -76.0460   27.2780  -71.0234 C.ar      11 UNK        -0.0830 
     12 C12       -75.7512   28.6425  -70.9914 C.ar      11 UNK        -0.1021 
     13 C13       -76.7047   29.5679  -70.5655 C.ar      11 UNK        -0.0753 
     14 C14       -77.9539   29.1137  -70.1327 C.ar      11 UNK        -0.0933 
     15 C15       -76.3817   31.0542  -70.5629 C.3       11 UNK         0.0166 
     16 S16       -76.5634   31.7834  -72.2229 S.3       11 UNK        -0.2615 
     17 C17       -74.8711   31.6811  -72.9114 C.3       11 UNK        -0.0865 
     18 CA        -74.6601   30.5568  -73.9680 C.3       10 UNK         0.0862 
     19 C         -75.4117   30.7509  -75.3136 C.2       10 UNK         0.5551 
     20 N         -75.3279   29.7865  -76.2243 N.am      10 UNK        -0.7319 
     21 O         -76.0115   31.7912  -75.5743 O.2       10 UNK        -0.5018 
     22 N         -73.2392   30.3631  -74.2640 N.am      10 UNK        -0.4509 
     23 C         -72.3284   29.7361  -73.5176 C.2       10 UNK         0.4899 
     24 O         -72.5598   29.2626  -72.4057 O.2       10 UNK        -0.4839 
     25 CA        -70.9148   29.6236  -74.1289 C.3       9 UNK         0.0222 
     26 CB        -69.9593   28.7869  -73.2569 C.3       9 UNK        -0.1966 
     27 N         -70.9369   29.0569  -75.4813 N.am      9 UNK        -0.4218 
     28 C         -71.3170   29.6896  -76.6011 C.2       9 UNK         0.5020 
     29 O         -71.6528   30.8746  -76.6294 O.2       9 UNK        -0.5274 
     30 CA        -71.3628   28.8664  -77.9013 C.3       8 UNK         0.0270 
     31 CB        -70.1436   29.1856  -78.7822 C.3       8 UNK        -0.1976 
     32 N         -71.4341   27.4178  -77.6814 N.am      8 UNK        -0.4313 
     33 C         -72.4936   26.7699  -77.1799 C.2       8 UNK         0.5041 
     34 O         -73.5487   27.3172  -76.8448 O.2       8 UNK        -0.5577 
     35 CA        -72.3207   25.2611  -76.9863 C.3       7 UNK         0.0284 
     36 CB        -71.5862   24.9594  -75.6665 C.3       7 UNK        -0.1958 
     37 N         -73.6370   24.6363  -76.9695 N.am      7 UNK        -0.4454 
     38 C         -73.9041   23.3710  -77.3122 C.2       7 UNK         0.5089 
     39 O         -73.0471   22.5776  -77.7067 O.2       7 UNK        -0.5125 
     40 CA        -75.3758   22.9222  -77.1951 C.3       6 UNK         0.0408 
     41 CB        -75.5364   21.3885  -77.1449 C.3       6 UNK        -0.1791 
     42 N         -76.0841   23.5556  -76.0772 N.am      6 UNK        -0.4762 
     43 C         -75.7813   23.4818  -74.7705 C.2       6 UNK         0.5007 
     44 O         -74.8599   22.8087  -74.3071 O.2       6 UNK        -0.5032 
     45 CA        -76.6899   24.2840  -73.8215 C.3       5 UNK         0.0783 
     46 C46       -76.4473   25.8113  -73.9178 C.3       11 UNK        -0.0857 
     47 S47       -74.8020   26.3346  -73.3275 S.3       11 UNK        -0.2512 
     48 C48       -75.0000   26.2895  -71.5160 C.3       11 UNK         0.0225 
     49 N         -78.0874   23.9461  -74.0932 N.am      5 UNK        -0.4615 
     50 C         -78.7297   22.8961  -73.5628 C.2       4 UNK         0.5053 
     51 O         -78.2561   22.1862  -72.6757 O.2       4 UNK        -0.5105 
     52 CA        -80.1294   22.5650  -74.1122 C.3       4 UNK         0.0263 
     53 CB        -81.2277   23.0174  -73.1365 C.3       4 UNK        -0.1981 
     54 N         -80.3665   23.1529  -75.4343 N.am      4 UNK        -0.4224 
     55 C         -79.9264   22.6066  -76.5788 C.2       3 UNK         0.4895 
     56 O         -79.3618   21.5141  -76.6371 O.2       3 UNK        -0.5091 
     57 CA        -80.1265   23.4032  -77.8825 C.3       3 UNK         0.0250 
     58 CB        -81.3666   22.8952  -78.6356 C.3       3 UNK        -0.1996 
     59 N         -80.2357   24.8537  -77.7010 N.am      3 UNK        -0.4254 
     60 C         -79.2768   25.6456  -77.2023 C.2       2 UNK         0.5004 
     61 O         -78.1824   25.2291  -76.8228 O.2       2 UNK        -0.5226 
     62 CA        -79.5947   27.1442  -77.0480 C.3       2 UNK         0.0269 
     63 CB        -80.9266   27.5791  -77.7003 C.3       2 UNK        -0.1926 
     64 N         -79.5676   27.5713  -75.6441 N.am      2 UNK        -0.4687 
     65 C         -80.2354   27.0392  -74.6102 C.2       1 UNK         0.5165 
     66 O         -80.9337   26.0276  -74.7090 O.2       1 UNK        -0.5079 
     67 H67       -79.6601   32.2374  -73.3217 H         1 UNK         0.0900 
     68 H68       -80.4754   31.9727  -74.8653 H         1 UNK         0.0900 
     69 H69       -81.3147   31.6228  -73.3509 H         1 UNK         0.0900 
     70 H70       -81.4291   29.4157  -72.9672 H         1 UNK         0.2959 
     71 H71       -79.0773   27.7683  -72.9719 H         1 UNK         0.1079 
     72 H72       -81.9452   26.8623  -72.4430 H         1 UNK         0.0837 
     73 H73       -80.4755   26.0657  -71.9473 H         1 UNK         0.0837 
     74 H74       -79.6656   26.1698  -69.6401 H         1 UNK         0.0685 
     75 H75       -79.7012   27.5524  -68.5761 H         1 UNK         0.0685 
     76 H76       -77.5283   25.7765  -70.6025 H         1 UNK         0.1434 
     77 H77       -74.7803   28.9871  -71.3138 H         1 UNK         0.1329 
     78 H78       -78.6949   29.8229  -69.7899 H         1 UNK         0.1335 
     79 H79       -75.3772   31.2226  -70.1726 H         1 UNK         0.0680 
     80 H80       -77.0562   31.5783  -69.8841 H         1 UNK         0.0680 
     81 H81       -74.1704   31.5491  -72.0868 H         1 UNK         0.1032 
     82 H82       -74.6217   32.6504  -73.3460 H         1 UNK         0.1032 
     83 H83       -75.0426   29.6244  -73.5511 H         1 UNK         0.0461 
     84 H84       -75.7938   29.9136  -77.1075 H         1 UNK         0.3453 
     85 H85       -74.7871   28.9448  -76.0640 H         1 UNK         0.3453 
     86 H86       -72.9411   30.6992  -75.1763 H         1 UNK         0.2984 
     87 H87       -70.5101   30.6362  -74.1860 H         1 UNK         0.0554 
     88 H88       -69.8694   29.2123  -72.2564 H         1 UNK         0.0847 
     89 H89       -68.9561   28.7551  -73.6824 H         1 UNK         0.0847 
     90 H90       -70.3105   27.7603  -73.1437 H         1 UNK         0.0847 
     91 H91       -70.7124   28.0765  -75.5566 H         1 UNK         0.3141 
     92 H92       -72.2633   29.1681  -78.4410 H         1 UNK         0.0743 
     93 H93       -70.0818   30.2550  -78.9899 H         1 UNK         0.0784 
     94 H94       -69.2089   28.8932  -78.3018 H         1 UNK         0.0784 
     95 H95       -70.2030   28.6751  -79.7437 H         1 UNK         0.0784 
     96 H96       -70.6119   26.8849  -77.9295 H         1 UNK         0.3213 
     97 H97       -71.7455   24.8672  -77.8274 H         1 UNK         0.0855 
     98 H98       -72.1300   25.3538  -74.8066 H         1 UNK         0.0814 
     99 H99       -70.5894   25.4012  -75.6566 H         1 UNK         0.0814 
    100 H100      -71.4638   23.8865  -75.5169 H         1 UNK         0.0814 
    101 H101      -74.3904   25.2572  -76.6990 H         1 UNK         0.3105 
    102 H102      -75.8718   23.2742  -78.1006 H         1 UNK         0.0547 
    103 H103      -76.5857   21.1023  -77.0734 H         1 UNK         0.0837 
    104 H104      -75.0112   20.9538  -76.2940 H         1 UNK         0.0837 
    105 H105      -75.1357   20.9230  -78.0460 H         1 UNK         0.0837 
    106 H106      -76.8614   24.1587  -76.3494 H         1 UNK         0.3020 
    107 H107      -76.4508   23.9699  -72.8033 H         1 UNK         0.1245 
    108 H108      -77.2055   26.3466  -73.3488 H         1 UNK         0.0781 
    109 H109      -76.5598   26.1628  -74.9446 H         1 UNK         0.0781 
    110 H110      -74.0391   26.5286  -71.0578 H         1 UNK         0.0836 
    111 H111      -75.2408   25.2749  -71.1967 H         1 UNK         0.0836 
    112 H112      -78.5220   24.4406  -74.8618 H         1 UNK         0.3022 
    113 H113      -80.1931   21.4777  -74.1942 H         1 UNK         0.0747 
    114 H114      -82.2166   22.7299  -73.4937 H         1 UNK         0.0793 
    115 H115      -81.0916   22.5579  -72.1565 H         1 UNK         0.0793 
    116 H116      -81.2263   24.0959  -72.9913 H         1 UNK         0.0793 
    117 H117      -80.7968   24.0724  -75.4520 H         1 UNK         0.3047 
    118 H118      -79.2489   23.2183  -78.5059 H         1 UNK         0.0822 
    119 H119      -81.4664   23.3768  -79.6085 H         1 UNK         0.0807 
    120 H120      -82.2832   23.0774  -78.0731 H         1 UNK         0.0807 
    121 H121      -81.3023   21.8207  -78.8142 H         1 UNK         0.0807 
    122 H122      -81.1161   25.2767  -77.9570 H         1 UNK         0.2946 
    123 H123      -78.7858   27.6752  -77.5527 H         1 UNK         0.1144 
    124 H124      -80.9512   27.3274  -78.7616 H         1 UNK         0.0793 
    125 H125      -81.0567   28.6593  -77.6304 H         1 UNK         0.0793 
    126 H126      -81.7918   27.1167  -77.2233 H         1 UNK         0.0793 
    127 H127      -79.0286   28.4115  -75.4427 H         1 UNK         0.2896 
@<TRIPOS>BOND
     1    1    2 1    
     2    1   67 1    
     3    1   68 1    
     4    1   69 1    
     5    2    3 2    
     6    2    4 am   BACKBONE|DICT|INTERRES
     7    4    5 1    
     8    4   70 1    
     9    5    6 1    
    10    5   65 1    
    11    5   71 1    
    12    6    7 1    
    13    6   72 1    
    14    6   73 1    
    15    7    8 1    
    16    8    9 1    
    17    8   74 1    
    18    8   75 1    
    19    9   10 ar   
    20    9   14 ar   
    21   10   11 ar   
    22   10   76 1    
    23   11   12 ar   
    24   11   48 1    
    25   12   13 ar   
    26   12   77 1    
    27   13   14 ar   
    28   13   15 1    
    29   14   78 1    
    30   15   16 1    
    31   15   79 1    
    32   15   80 1    
    33   16   17 1    
    34   17   18 1    
    35   17   81 1    
    36   17   82 1    
    37   18   19 1    
    38   18   22 1    
    39   18   83 1    
    40   19   20 am   BACKBONE|DICT|INTERRES
    41   19   21 2    
    42   20   84 1    
    43   20   85 1    
    44   22   23 am   BACKBONE|DICT|INTERRES
    45   22   86 1    
    46   23   24 2    
    47   23   25 1    
    48   25   26 1    
    49   25   27 1    
    50   25   87 1    
    51   26   88 1    
    52   26   89 1    
    53   26   90 1    
    54   27   28 am   BACKBONE|DICT|INTERRES
    55   27   91 1    
    56   28   29 2    
    57   28   30 1    
    58   30   31 1    
    59   30   32 1    
    60   30   92 1    
    61   31   93 1    
    62   31   94 1    
    63   31   95 1    
    64   32   33 am   BACKBONE|DICT|INTERRES
    65   32   96 1    
    66   33   34 2    
    67   33   35 1    
    68   35   36 1    
    69   35   37 1    
    70   35   97 1    
    71   36   98 1    
    72   36   99 1    
    73   36  100 1    
    74   37   38 am   BACKBONE|DICT|INTERRES
    75   37  101 1    
    76   38   39 2    
    77   38   40 1    
    78   40   41 1    
    79   40   42 1    
    80   40  102 1    
    81   41  103 1    
    82   41  104 1    
    83   41  105 1    
    84   42   43 am   BACKBONE|DICT|INTERRES
    85   42  106 1    
    86   43   44 2    
    87   43   45 1    
    88   45   46 1    
    89   45   49 1    
    90   45  107 1    
    91   46   47 1    
    92   46  108 1    
    93   46  109 1    
    94   47   48 1    
    95   48  110 1    
    96   48  111 1    
    97   49   50 am   BACKBONE|DICT|INTERRES
    98   49  112 1    
    99   50   51 2    
   100   50   52 1    
   101   52   53 1    
   102   52   54 1    
   103   52  113 1    
   104   53  114 1    
   105   53  115 1    
   106   53  116 1    
   107   54   55 am   BACKBONE|DICT|INTERRES
   108   54  117 1    
   109   55   56 2    
   110   55   57 1    
   111   57   58 1    
   112   57   59 1    
   113   57  118 1    
   114   58  119 1    
   115   58  120 1    
   116   58  121 1    
   117   59   60 am   BACKBONE|DICT|INTERRES
   118   59  122 1    
   119   60   61 2    
   120   60   62 1    
   121   62   63 1    
   122   62   64 1    
   123   62  123 1    
   124   63  124 1    
   125   63  125 1    
   126   63  126 1    
   127   64   65 am   BACKBONE|DICT|INTERRES
   128   64  127 1    
   129   65   66 2    
@<TRIPOS>SUBSTRUCTURE
     1 UNK         1 GROUP             0       ****    0 ROOT    
