@<TRIPOS>MOLECULE
3R135
127   129    1
SMALL
USER_CHARGES


@<TRIPOS>ATOM
      1 CA        -78.1350   30.5492  -75.6201 C.3       0 UNK        -0.1998 
      2 C         -78.2348   29.2071  -74.9115 C.2       0 UNK         0.4909 
      3 O         -77.2466   28.4807  -74.8406 O.2       0 UNK        -0.5240 
      4 N         -79.4228   28.8673  -74.3937 N.am      1 UNK        -0.4739 
      5 CA        -79.6725   27.6297  -73.6404 C.3       1 UNK         0.0864 
      6 C6        -80.9514   27.7118  -72.7673 C.3       11 UNK        -0.0881 
      7 S7        -81.0183   29.1785  -71.6836 S.3       11 UNK        -0.2682 
      8 C8        -80.1979   28.5723  -70.1732 C.3       11 UNK         0.0289 
      9 C9        -78.6893   28.4598  -70.3471 C.ar      11 UNK        -0.0687 
     10 C10       -78.0492   27.2200  -70.2412 C.ar      11 UNK        -0.0823 
     11 C11       -76.6620   27.1195  -70.4034 C.ar      11 UNK        -0.0830 
     12 C12       -75.9170   28.2743  -70.6606 C.ar      11 UNK        -0.1021 
     13 C13       -76.5443   29.5194  -70.7567 C.ar      11 UNK        -0.0753 
     14 C14       -77.9294   29.6060  -70.5999 C.ar      11 UNK        -0.0933 
     15 C15       -75.7199   30.7698  -71.0127 C.3       11 UNK         0.0166 
     16 S16       -75.2613   30.9005  -72.7654 S.3       11 UNK        -0.2615 
     17 C17       -74.1948   32.3854  -72.7433 C.3       11 UNK        -0.0865 
     18 CA        -72.6751   32.0750  -72.6434 C.3       10 UNK         0.0862 
     19 C         -72.2203   31.7957  -71.1807 C.2       10 UNK         0.5551 
     20 N         -71.6542   30.6364  -70.8675 N.am      10 UNK        -0.7319 
     21 O         -72.3774   32.6541  -70.3160 O.2       10 UNK        -0.5018 
     22 N         -72.2753   31.0543  -73.6226 N.am      10 UNK        -0.4509 
     23 C         -71.0548   30.9043  -74.1483 C.2       10 UNK         0.4899 
     24 O         -70.1040   31.6427  -73.8900 O.2       10 UNK        -0.4839 
     25 CA        -70.8463   29.7256  -75.1199 C.3       9 UNK         0.0222 
     26 CB        -69.9627   28.6452  -74.4736 C.3       9 UNK        -0.1966 
     27 N         -72.0878   29.1005  -75.5919 N.am      9 UNK        -0.4218 
     28 C         -72.9584   29.6547  -76.4483 C.2       9 UNK         0.5020 
     29 O         -72.8312   30.7898  -76.9121 O.2       9 UNK        -0.5274 
     30 CA        -74.1636   28.7792  -76.8494 C.3       8 UNK         0.0270 
     31 CB        -74.9709   29.3651  -78.0266 C.3       8 UNK        -0.1976 
     32 N         -73.8087   27.3791  -77.1223 N.am      8 UNK        -0.4313 
     33 C         -72.8917   26.9221  -77.9944 C.2       8 UNK         0.5041 
     34 O         -72.1687   27.6443  -78.6820 O.2       8 UNK        -0.5577 
     35 CA        -72.7491   25.3927  -78.1330 C.3       7 UNK         0.0284 
     36 CB        -71.6262   24.8760  -77.2184 C.3       7 UNK        -0.1958 
     37 N         -73.9841   24.6603  -77.8421 N.am      7 UNK        -0.4454 
     38 C         -75.1209   24.7695  -78.5428 C.2       7 UNK         0.5089 
     39 O         -75.2121   25.3974  -79.5982 O.2       7 UNK        -0.5125 
     40 CA        -76.3794   24.0818  -77.9774 C.3       6 UNK         0.0408 
     41 CB        -76.6809   22.8121  -78.7904 C.3       6 UNK        -0.1791 
     42 N         -76.3762   23.7505  -76.5410 N.am      6 UNK        -0.4762 
     43 C         -76.1070   24.5766  -75.5136 C.2       6 UNK         0.5007 
     44 O         -75.6863   25.7240  -75.6607 O.2       6 UNK        -0.5032 
     45 CA        -76.3604   24.0238  -74.0959 C.3       5 UNK         0.0783 
     46 C46       -76.2718   25.1238  -73.0016 C.3       11 UNK        -0.0857 
     47 S47       -76.6415   24.4787  -71.3339 S.3       11 UNK        -0.2512 
     48 C48       -75.9521   25.7776  -70.2597 C.3       11 UNK         0.0225 
     49 N         -77.6593   23.3490  -74.0852 N.am      5 UNK        -0.4615 
     50 C         -77.8668   22.0466  -73.8732 C.2       4 UNK         0.5053 
     51 O         -76.9699   21.2239  -73.6881 O.2       4 UNK        -0.5105 
     52 CA        -79.3335   21.5834  -73.9071 C.3       4 UNK         0.0263 
     53 CB        -80.0456   21.9354  -72.5904 C.3       4 UNK        -0.1981 
     54 N         -80.0828   22.1415  -75.0396 N.am      4 UNK        -0.4224 
     55 C         -79.8123   21.8781  -76.3268 C.2       3 UNK         0.4895 
     56 O         -78.9036   21.1296  -76.6849 O.2       3 UNK        -0.5091 
     57 CA        -80.6856   22.5422  -77.4094 C.3       3 UNK         0.0250 
     58 CB        -81.4449   21.4701  -78.2093 C.3       3 UNK        -0.1996 
     59 N         -81.6609   23.5051  -76.8859 N.am      3 UNK        -0.4254 
     60 C         -81.4792   24.8041  -76.6066 C.2       2 UNK         0.5004 
     61 O         -82.4112   25.5014  -76.2039 O.2       2 UNK        -0.5226 
     62 CA        -80.0946   25.4611  -76.8151 C.3       2 UNK         0.0269 
     63 CB        -79.9700   26.0315  -78.2379 C.3       2 UNK        -0.1926 
     64 N         -79.8756   26.5468  -75.8568 N.am      2 UNK        -0.4687 
     65 C         -79.7360   26.3732  -74.5353 C.2       1 UNK         0.5165 
     66 O         -79.6806   25.2598  -74.0124 O.2       1 UNK        -0.5079 
     67 H67       -79.0765   31.0971  -75.5918 H         1 UNK         0.0900 
     68 H68       -77.3699   31.1641  -75.1467 H         1 UNK         0.0900 
     69 H69       -77.8562   30.4022  -76.6632 H         1 UNK         0.0900 
     70 H70       -80.2030   29.5057  -74.4581 H         1 UNK         0.2959 
     71 H71       -78.8222   27.4798  -72.9731 H         1 UNK         0.1079 
     72 H72       -81.0512   26.8162  -72.1504 H         1 UNK         0.0837 
     73 H73       -81.8395   27.7358  -73.4022 H         1 UNK         0.0837 
     74 H74       -80.6354   27.6180  -69.8762 H         1 UNK         0.0685 
     75 H75       -80.4051   29.2693  -69.3601 H         1 UNK         0.0685 
     76 H76       -78.6280   26.3298  -70.0355 H         1 UNK         0.1434 
     77 H77       -74.8440   28.2113  -70.7809 H         1 UNK         0.1329 
     78 H78       -78.4211   30.5661  -70.6781 H         1 UNK         0.1335 
     79 H79       -76.2720   31.6628  -70.7156 H         1 UNK         0.0680 
     80 H80       -74.8215   30.7405  -70.3956 H         1 UNK         0.0680 
     81 H81       -74.5166   33.0690  -71.9551 H         1 UNK         0.1032 
     82 H82       -74.3805   32.9220  -73.6750 H         1 UNK         0.1032 
     83 H83       -72.1572   32.9956  -72.9197 H         1 UNK         0.0461 
     84 H84       -71.3580   30.4704  -69.9188 H         1 UNK         0.3453 
     85 H85       -71.5181   29.9303  -71.5718 H         1 UNK         0.3453 
     86 H86       -72.9990   30.3996  -73.8804 H         1 UNK         0.2984 
     87 H87       -70.3182   30.1184  -75.9912 H         1 UNK         0.0554 
     88 H88       -69.7313   27.8468  -75.1791 H         1 UNK         0.0847 
     89 H89       -70.4418   28.1967  -73.6025 H         1 UNK         0.0847 
     90 H90       -69.0115   29.0640  -74.1417 H         1 UNK         0.0847 
     91 H91       -72.2754   28.1621  -75.2694 H         1 UNK         0.3141 
     92 H92       -74.8218   28.7598  -75.9797 H         1 UNK         0.0743 
     93 H93       -75.3333   30.3670  -77.7932 H         1 UNK         0.0784 
     94 H94       -75.8431   28.7503  -78.2497 H         1 UNK         0.0784 
     95 H95       -74.3683   29.4362  -78.9326 H         1 UNK         0.0784 
     96 H96       -74.3709   26.6953  -76.6170 H         1 UNK         0.3213 
     97 H97       -72.4736   25.1828  -79.1689 H         1 UNK         0.0855 
     98 H98       -71.8565   25.0353  -76.1642 H         1 UNK         0.0814 
     99 H99       -70.6866   25.3898  -77.4273 H         1 UNK         0.0814 
    100 H100      -71.4500   23.8106  -77.3680 H         1 UNK         0.0814 
    101 H101      -74.0073   24.1172  -76.9919 H         1 UNK         0.3105 
    102 H102      -77.2015   24.7819  -78.1321 H         1 UNK         0.0547 
    103 H103      -77.6702   22.4181  -78.5690 H         1 UNK         0.0837 
    104 H104      -75.9524   22.0248  -78.5934 H         1 UNK         0.0837 
    105 H105      -76.6587   23.0139  -79.8625 H         1 UNK         0.0837 
    106 H106      -76.7013   22.8214  -76.3081 H         1 UNK         0.3020 
    107 H107      -75.5626   23.3031  -73.9036 H         1 UNK         0.1245 
    108 H108      -76.9636   25.9403  -73.2137 H         1 UNK         0.0781 
    109 H109      -75.2739   25.5662  -72.9900 H         1 UNK         0.0781 
    110 H110      -74.8851   25.8741  -70.4666 H         1 UNK         0.0836 
    111 H111      -76.0329   25.4510  -69.2222 H         1 UNK         0.0836 
    112 H112      -78.4683   23.9627  -74.1701 H         1 UNK         0.3022 
    113 H113      -79.3334   20.4962  -74.0118 H         1 UNK         0.0747 
    114 H114      -81.0583   21.5329  -72.5663 H         1 UNK         0.0793 
    115 H115      -79.5112   21.5183  -71.7357 H         1 UNK         0.0793 
    116 H116      -80.1083   23.0138  -72.4382 H         1 UNK         0.0793 
    117 H117      -80.8366   22.7768  -74.8198 H         1 UNK         0.3047 
    118 H118      -80.0133   23.0455  -78.1049 H         1 UNK         0.0822 
    119 H119      -82.0230   21.9144  -79.0200 H         1 UNK         0.0807 
    120 H120      -82.1313   20.9040  -77.5782 H         1 UNK         0.0807 
    121 H121      -80.7562   20.7555  -78.6628 H         1 UNK         0.0807 
    122 H122      -82.5867   23.1305  -76.7346 H         1 UNK         0.2946 
    123 H123      -79.3038   24.7284  -76.6529 H         1 UNK         0.1144 
    124 H124      -78.9977   26.4990  -78.3954 H         1 UNK         0.0793 
    125 H125      -80.7368   26.7811  -78.4384 H         1 UNK         0.0793 
    126 H126      -80.0781   25.2504  -78.9909 H         1 UNK         0.0793 
    127 H127      -79.9393   27.4913  -76.2065 H         1 UNK         0.2896 
@<TRIPOS>BOND
     1    1    2 1    
     2    1   67 1    
     3    1   68 1    
     4    1   69 1    
     5    2    3 2    
     6    2    4 am   BACKBONE|DICT|INTERRES
     7    4    5 1    
     8    4   70 1    
     9    5    6 1    
    10    5   65 1    
    11    5   71 1    
    12    6    7 1    
    13    6   72 1    
    14    6   73 1    
    15    7    8 1    
    16    8    9 1    
    17    8   74 1    
    18    8   75 1    
    19    9   10 ar   
    20    9   14 ar   
    21   10   11 ar   
    22   10   76 1    
    23   11   12 ar   
    24   11   48 1    
    25   12   13 ar   
    26   12   77 1    
    27   13   14 ar   
    28   13   15 1    
    29   14   78 1    
    30   15   16 1    
    31   15   79 1    
    32   15   80 1    
    33   16   17 1    
    34   17   18 1    
    35   17   81 1    
    36   17   82 1    
    37   18   19 1    
    38   18   22 1    
    39   18   83 1    
    40   19   20 am   BACKBONE|DICT|INTERRES
    41   19   21 2    
    42   20   84 1    
    43   20   85 1    
    44   22   23 am   BACKBONE|DICT|INTERRES
    45   22   86 1    
    46   23   24 2    
    47   23   25 1    
    48   25   26 1    
    49   25   27 1    
    50   25   87 1    
    51   26   88 1    
    52   26   89 1    
    53   26   90 1    
    54   27   28 am   BACKBONE|DICT|INTERRES
    55   27   91 1    
    56   28   29 2    
    57   28   30 1    
    58   30   31 1    
    59   30   32 1    
    60   30   92 1    
    61   31   93 1    
    62   31   94 1    
    63   31   95 1    
    64   32   33 am   BACKBONE|DICT|INTERRES
    65   32   96 1    
    66   33   34 2    
    67   33   35 1    
    68   35   36 1    
    69   35   37 1    
    70   35   97 1    
    71   36   98 1    
    72   36   99 1    
    73   36  100 1    
    74   37   38 am   BACKBONE|DICT|INTERRES
    75   37  101 1    
    76   38   39 2    
    77   38   40 1    
    78   40   41 1    
    79   40   42 1    
    80   40  102 1    
    81   41  103 1    
    82   41  104 1    
    83   41  105 1    
    84   42   43 am   BACKBONE|DICT|INTERRES
    85   42  106 1    
    86   43   44 2    
    87   43   45 1    
    88   45   46 1    
    89   45   49 1    
    90   45  107 1    
    91   46   47 1    
    92   46  108 1    
    93   46  109 1    
    94   47   48 1    
    95   48  110 1    
    96   48  111 1    
    97   49   50 am   BACKBONE|DICT|INTERRES
    98   49  112 1    
    99   50   51 2    
   100   50   52 1    
   101   52   53 1    
   102   52   54 1    
   103   52  113 1    
   104   53  114 1    
   105   53  115 1    
   106   53  116 1    
   107   54   55 am   BACKBONE|DICT|INTERRES
   108   54  117 1    
   109   55   56 2    
   110   55   57 1    
   111   57   58 1    
   112   57   59 1    
   113   57  118 1    
   114   58  119 1    
   115   58  120 1    
   116   58  121 1    
   117   59   60 am   BACKBONE|DICT|INTERRES
   118   59  122 1    
   119   60   61 2    
   120   60   62 1    
   121   62   63 1    
   122   62   64 1    
   123   62  123 1    
   124   63  124 1    
   125   63  125 1    
   126   63  126 1    
   127   64   65 am   BACKBONE|DICT|INTERRES
   128   64  127 1    
   129   65   66 2    
@<TRIPOS>SUBSTRUCTURE
     1 UNK         1 GROUP             0       ****    0 ROOT    
