@<TRIPOS>MOLECULE
3R135
127   129    1
SMALL
USER_CHARGES


@<TRIPOS>ATOM
      1 CA        -81.3251   23.0795  -71.5361 C.3       0 UNK        -0.1998 
      2 C         -80.8721   24.1526  -72.5126 C.2       0 UNK         0.4909 
      3 O         -79.7775   24.0460  -73.0645 O.2       0 UNK        -0.5240 
      4 N         -81.7147   25.1704  -72.7422 N.am      1 UNK        -0.4739 
      5 CA        -81.4804   26.3608  -73.5795 C.3       1 UNK         0.0864 
      6 C6        -80.6036   27.4346  -72.8897 C.3       11 UNK        -0.0881 
      7 S7        -81.2416   27.9644  -71.2604 S.3       11 UNK        -0.2682 
      8 C8        -79.7098   28.0868  -70.2603 C.3       11 UNK         0.0289 
      9 C9        -78.6814   29.1322  -70.7106 C.ar      11 UNK        -0.0687 
     10 C10       -78.9317   30.0467  -71.7408 C.ar      11 UNK        -0.0823 
     11 C11       -77.9432   30.9299  -72.1781 C.ar      11 UNK        -0.0830 
     12 C12       -76.7063   30.9507  -71.5309 C.ar      11 UNK        -0.1021 
     13 C13       -76.4529   30.0880  -70.4599 C.ar      11 UNK        -0.0753 
     14 C14       -77.4402   29.1761  -70.0647 C.ar      11 UNK        -0.0933 
     15 C15       -75.1226   30.1785  -69.7177 C.3       11 UNK         0.0166 
     16 S16       -74.2612   28.5823  -69.5343 S.3       11 UNK        -0.2615 
     17 C17       -73.9594   28.1079  -71.2688 C.3       11 UNK        -0.0865 
     18 CA        -72.6936   28.7303  -71.9185 C.3       10 UNK         0.0862 
     19 C         -71.3696   28.1080  -71.3728 C.2       10 UNK         0.5551 
     20 N         -70.5859   27.3859  -72.1660 N.am      10 UNK        -0.7319 
     21 O         -71.0290   28.3015  -70.2088 O.2       10 UNK        -0.5018 
     22 N         -72.8300   28.6844  -73.3805 N.am      10 UNK        -0.4509 
     23 C         -72.1098   29.3796  -74.2670 C.2       10 UNK         0.4899 
     24 O         -71.2987   30.2528  -73.9546 O.2       10 UNK        -0.4839 
     25 CA        -72.3331   29.0167  -75.7521 C.3       9 UNK         0.0222 
     26 CB        -71.2037   29.5325  -76.6683 C.3       9 UNK        -0.1966 
     27 N         -72.5613   27.5793  -75.9779 N.am      9 UNK        -0.4218 
     28 C         -71.7512   26.5677  -75.6249 C.2       9 UNK         0.5020 
     29 O         -70.6718   26.7272  -75.0529 O.2       9 UNK        -0.5274 
     30 CA        -72.2136   25.1287  -75.9201 C.3       8 UNK         0.0270 
     31 CB        -72.5685   24.3928  -74.6183 C.3       8 UNK        -0.1976 
     32 N         -73.3343   25.0288  -76.8628 N.am      8 UNK        -0.4313 
     33 C         -73.1848   25.1128  -78.1923 C.2       8 UNK         0.5041 
     34 O         -72.1173   25.3868  -78.7424 O.2       8 UNK        -0.5577 
     35 CA        -74.4164   24.8320  -79.0601 C.3       7 UNK         0.0284 
     36 CB        -74.7832   23.3371  -79.0403 C.3       7 UNK        -0.1958 
     37 N         -75.5650   25.6377  -78.6388 N.am      7 UNK        -0.4454 
     38 C         -76.1124   26.6013  -79.3928 C.2       7 UNK         0.5089 
     39 O         -75.6942   26.9234  -80.5060 O.2       7 UNK        -0.5125 
     40 CA        -77.3484   27.3306  -78.8400 C.3       6 UNK         0.0408 
     41 CB        -78.6325   26.6139  -79.2766 C.3       6 UNK        -0.1791 
     42 N         -77.3609   27.5131  -77.3873 N.am      6 UNK        -0.4762 
     43 C         -76.5262   28.3324  -76.7314 C.2       6 UNK         0.5007 
     44 O         -75.5473   28.8736  -77.2446 O.2       6 UNK        -0.5032 
     45 CA        -76.8601   28.6001  -75.2559 C.3       5 UNK         0.0783 
     46 C46       -78.0400   29.5992  -75.1154 C.3       11 UNK        -0.0857 
     47 S47       -77.4335   31.3112  -74.8993 S.3       11 UNK        -0.2512 
     48 C48       -78.2273   31.8603  -73.3500 C.3       11 UNK         0.0225 
     49 N         -77.0813   27.3363  -74.5465 N.am      5 UNK        -0.4615 
     50 C         -76.0694   26.6253  -74.0331 C.2       4 UNK         0.5053 
     51 O         -74.8936   26.9755  -74.0999 O.2       4 UNK        -0.5105 
     52 CA        -76.3932   25.2844  -73.3658 C.3       4 UNK         0.0263 
     53 CB        -76.9520   25.4755  -71.9474 C.3       4 UNK        -0.1981 
     54 N         -77.2787   24.4361  -74.1596 N.am      4 UNK        -0.4224 
     55 C         -76.9821   23.9550  -75.3754 C.2       3 UNK         0.4895 
     56 O         -75.9829   24.2823  -76.0190 O.2       3 UNK        -0.5091 
     57 CA        -77.9657   22.9458  -75.9762 C.3       3 UNK         0.0250 
     58 CB        -77.9613   21.6284  -75.1825 C.3       3 UNK        -0.1996 
     59 N         -79.3134   23.5093  -75.9902 N.am      3 UNK        -0.4254 
     60 C         -80.0344   23.7304  -77.0961 C.2       2 UNK         0.5004 
     61 O         -79.6900   23.3545  -78.2170 O.2       2 UNK        -0.5226 
     62 CA        -81.3655   24.4965  -76.9560 C.3       2 UNK         0.0269 
     63 CB        -82.5481   23.6115  -77.3864 C.3       2 UNK        -0.1926 
     64 N         -81.6426   25.0261  -75.6173 N.am      2 UNK        -0.4687 
     65 C         -80.9789   26.0152  -75.0023 C.2       1 UNK         0.5165 
     66 O         -79.9974   26.5897  -75.4861 O.2       1 UNK        -0.5079 
     67 H67       -82.3128   23.2899  -71.1265 H         1 UNK         0.0900 
     68 H68       -80.6213   23.0096  -70.7074 H         1 UNK         0.0900 
     69 H69       -81.3618   22.1115  -72.0349 H         1 UNK         0.0900 
     70 H70       -82.6004   25.1737  -72.2554 H         1 UNK         0.2959 
     71 H71       -82.4633   26.8103  -73.7319 H         1 UNK         0.1079 
     72 H72       -80.5647   28.3210  -73.5229 H         1 UNK         0.0837 
     73 H73       -79.5786   27.0855  -72.7877 H         1 UNK         0.0837 
     74 H74       -79.9979   28.3120  -69.2327 H         1 UNK         0.0685 
     75 H75       -79.2361   27.1046  -70.2367 H         1 UNK         0.0685 
     76 H76       -79.8912   30.0699  -72.2334 H         1 UNK         0.1434 
     77 H77       -75.9469   31.6483  -71.8574 H         1 UNK         0.1329 
     78 H78       -77.2394   28.4975  -69.2468 H         1 UNK         0.1335 
     79 H79       -75.3093   30.5867  -68.7237 H         1 UNK         0.0680 
     80 H80       -74.4491   30.8796  -70.2129 H         1 UNK         0.0680 
     81 H81       -73.9167   27.0189  -71.3287 H         1 UNK         0.1032 
     82 H82       -74.8457   28.3916  -71.8372 H         1 UNK         0.1032 
     83 H83       -72.6663   29.7872  -71.6480 H         1 UNK         0.0461 
     84 H84       -69.7323   27.0046  -71.7914 H         1 UNK         0.3453 
     85 H85       -70.8055   27.2491  -73.1470 H         1 UNK         0.3453 
     86 H86       -73.4901   27.9933  -73.7352 H         1 UNK         0.2984 
     87 H87       -73.2522   29.5231  -76.0472 H         1 UNK         0.0554 
     88 H88       -71.3982   29.2878  -77.7125 H         1 UNK         0.0847 
     89 H89       -70.2375   29.1052  -76.3978 H         1 UNK         0.0847 
     90 H90       -71.1098   30.6171  -76.6033 H         1 UNK         0.0847 
     91 H91       -73.4499   27.3383  -76.3951 H         1 UNK         0.3141 
     92 H92       -71.3578   24.6099  -76.3581 H         1 UNK         0.0743 
     93 H93       -73.3527   24.9057  -74.0674 H         1 UNK         0.0784 
     94 H94       -72.9012   23.3729  -74.8114 H         1 UNK         0.0784 
     95 H95       -71.7020   24.3323  -73.9583 H         1 UNK         0.0784 
     96 H96       -74.2457   24.7815  -76.4803 H         1 UNK         0.3213 
     97 H97       -74.1371   25.0743  -80.0878 H         1 UNK         0.0855 
     98 H98       -73.9493   22.7299  -79.3950 H         1 UNK         0.0814 
     99 H99       -75.6325   23.1314  -79.6919 H         1 UNK         0.0814 
    100 H100      -75.0371   22.9829  -78.0418 H         1 UNK         0.0814 
    101 H101      -75.9552   25.4352  -77.7248 H         1 UNK         0.3105 
    102 H102      -77.3614   28.3267  -79.2882 H         1 UNK         0.0547 
    103 H103      -79.5246   27.1275  -78.9177 H         1 UNK         0.0837 
    104 H104      -78.7007   26.5650  -80.3642 H         1 UNK         0.0837 
    105 H105      -78.6555   25.5913  -78.9069 H         1 UNK         0.0837 
    106 H106      -78.1367   27.1060  -76.8797 H         1 UNK         0.3020 
    107 H107      -75.9755   29.0712  -74.8188 H         1 UNK         0.1245 
    108 H108      -78.6550   29.3289  -74.2629 H         1 UNK         0.0781 
    109 H109      -78.7215   29.5687  -75.9682 H         1 UNK         0.0781 
    110 H110      -79.3015   31.9535  -73.5178 H         1 UNK         0.0836 
    111 H111      -77.8728   32.8636  -73.1093 H         1 UNK         0.0836 
    112 H112      -78.0229   26.9657  -74.5314 H         1 UNK         0.3022 
    113 H113      -75.4529   24.7419  -73.2628 H         1 UNK         0.0747 
    114 H114      -77.0064   24.5251  -71.4164 H         1 UNK         0.0793 
    115 H115      -77.9514   25.9016  -71.9561 H         1 UNK         0.0793 
    116 H116      -76.3195   26.1401  -71.3575 H         1 UNK         0.0793 
    117 H117      -78.1552   24.1622  -73.7151 H         1 UNK         0.3047 
    118 H118      -77.6233   22.7295  -76.9906 H         1 UNK         0.0822 
    119 H119      -78.3188   21.7643  -74.1609 H         1 UNK         0.0807 
    120 H120      -76.9556   21.2095  -75.1259 H         1 UNK         0.0807 
    121 H121      -78.5965   20.8820  -75.6595 H         1 UNK         0.0807 
    122 H122      -79.6707   23.8461  -75.1026 H         1 UNK         0.2946 
    123 H123      -81.3058   25.3451  -77.6413 H         1 UNK         0.1144 
    124 H124      -82.4101   23.2364  -78.4016 H         1 UNK         0.0793 
    125 H125      -82.6622   22.7461  -76.7325 H         1 UNK         0.0793 
    126 H126      -83.4857   24.1677  -77.3766 H         1 UNK         0.0793 
    127 H127      -82.4027   24.5900  -75.1146 H         1 UNK         0.2896 
@<TRIPOS>BOND
     1    1    2 1    
     2    1   67 1    
     3    1   68 1    
     4    1   69 1    
     5    2    3 2    
     6    2    4 am   BACKBONE|DICT|INTERRES
     7    4    5 1    
     8    4   70 1    
     9    5    6 1    
    10    5   65 1    
    11    5   71 1    
    12    6    7 1    
    13    6   72 1    
    14    6   73 1    
    15    7    8 1    
    16    8    9 1    
    17    8   74 1    
    18    8   75 1    
    19    9   10 ar   
    20    9   14 ar   
    21   10   11 ar   
    22   10   76 1    
    23   11   12 ar   
    24   11   48 1    
    25   12   13 ar   
    26   12   77 1    
    27   13   14 ar   
    28   13   15 1    
    29   14   78 1    
    30   15   16 1    
    31   15   79 1    
    32   15   80 1    
    33   16   17 1    
    34   17   18 1    
    35   17   81 1    
    36   17   82 1    
    37   18   19 1    
    38   18   22 1    
    39   18   83 1    
    40   19   20 am   BACKBONE|DICT|INTERRES
    41   19   21 2    
    42   20   84 1    
    43   20   85 1    
    44   22   23 am   BACKBONE|DICT|INTERRES
    45   22   86 1    
    46   23   24 2    
    47   23   25 1    
    48   25   26 1    
    49   25   27 1    
    50   25   87 1    
    51   26   88 1    
    52   26   89 1    
    53   26   90 1    
    54   27   28 am   BACKBONE|DICT|INTERRES
    55   27   91 1    
    56   28   29 2    
    57   28   30 1    
    58   30   31 1    
    59   30   32 1    
    60   30   92 1    
    61   31   93 1    
    62   31   94 1    
    63   31   95 1    
    64   32   33 am   BACKBONE|DICT|INTERRES
    65   32   96 1    
    66   33   34 2    
    67   33   35 1    
    68   35   36 1    
    69   35   37 1    
    70   35   97 1    
    71   36   98 1    
    72   36   99 1    
    73   36  100 1    
    74   37   38 am   BACKBONE|DICT|INTERRES
    75   37  101 1    
    76   38   39 2    
    77   38   40 1    
    78   40   41 1    
    79   40   42 1    
    80   40  102 1    
    81   41  103 1    
    82   41  104 1    
    83   41  105 1    
    84   42   43 am   BACKBONE|DICT|INTERRES
    85   42  106 1    
    86   43   44 2    
    87   43   45 1    
    88   45   46 1    
    89   45   49 1    
    90   45  107 1    
    91   46   47 1    
    92   46  108 1    
    93   46  109 1    
    94   47   48 1    
    95   48  110 1    
    96   48  111 1    
    97   49   50 am   BACKBONE|DICT|INTERRES
    98   49  112 1    
    99   50   51 2    
   100   50   52 1    
   101   52   53 1    
   102   52   54 1    
   103   52  113 1    
   104   53  114 1    
   105   53  115 1    
   106   53  116 1    
   107   54   55 am   BACKBONE|DICT|INTERRES
   108   54  117 1    
   109   55   56 2    
   110   55   57 1    
   111   57   58 1    
   112   57   59 1    
   113   57  118 1    
   114   58  119 1    
   115   58  120 1    
   116   58  121 1    
   117   59   60 am   BACKBONE|DICT|INTERRES
   118   59  122 1    
   119   60   61 2    
   120   60   62 1    
   121   62   63 1    
   122   62   64 1    
   123   62  123 1    
   124   63  124 1    
   125   63  125 1    
   126   63  126 1    
   127   64   65 am   BACKBONE|DICT|INTERRES
   128   64  127 1    
   129   65   66 2    
@<TRIPOS>SUBSTRUCTURE
     1 UNK         1 GROUP             0       ****    0 ROOT    
