@<TRIPOS>MOLECULE
3R135
127   129    1
SMALL
USER_CHARGES


@<TRIPOS>ATOM
      1 CA        -76.4143   23.5438  -77.1776 C.3       0 UNK        -0.1998 
      2 C         -77.0173   22.9766  -75.9008 C.2       0 UNK         0.4909 
      3 O         -76.7511   21.8287  -75.5477 O.2       0 UNK        -0.5240 
      4 N         -77.8476   23.7725  -75.2181 N.am      1 UNK        -0.4739 
      5 CA        -78.5938   23.4140  -74.0050 C.3       1 UNK         0.0864 
      6 C6        -78.7460   24.6654  -73.0966 C.3       11 UNK        -0.0881 
      7 S7        -78.9901   24.2720  -71.3298 S.3       11 UNK        -0.2682 
      8 C8        -77.4349   24.8553  -70.5710 C.3       11 UNK         0.0289 
      9 C9        -77.1581   26.3494  -70.7414 C.ar      11 UNK        -0.0687 
     10 C10       -78.1871   27.3001  -70.7473 C.ar      11 UNK        -0.0823 
     11 C11       -77.9011   28.6590  -70.9110 C.ar      11 UNK        -0.0830 
     12 C12       -76.5721   29.0713  -71.0525 C.ar      11 UNK        -0.1021 
     13 C13       -75.5356   28.1357  -71.0382 C.ar      11 UNK        -0.0753 
     14 C14       -75.8353   26.7816  -70.8734 C.ar      11 UNK        -0.0933 
     15 C15       -74.0914   28.5824  -71.1958 C.3       11 UNK         0.0166 
     16 S16       -73.6430   28.7221  -72.9524 S.3       11 UNK        -0.2615 
     17 C17       -73.3418   30.5190  -73.1006 C.3       11 UNK        -0.0865 
     18 CA        -72.9539   30.9667  -74.5370 C.3       10 UNK         0.0862 
     19 C         -72.6996   32.5005  -74.6026 C.2       10 UNK         0.5551 
     20 N         -71.5317   32.9642  -75.0308 N.am      10 UNK        -0.7319 
     21 O         -73.5804   33.2855  -74.2605 O.2       10 UNK        -0.5018 
     22 N         -71.8689   30.1377  -75.0825 N.am      10 UNK        -0.4509 
     23 C         -71.6365   29.8911  -76.3750 C.2       10 UNK         0.4899 
     24 O         -72.2549   30.4232  -77.2961 O.2       10 UNK        -0.4839 
     25 CA        -70.5667   28.8316  -76.7047 C.3       9 UNK         0.0222 
     26 CB        -69.1748   29.4733  -76.8673 C.3       9 UNK        -0.1966 
     27 N         -70.5448   27.6876  -75.7755 N.am      9 UNK        -0.4218 
     28 C         -70.1772   27.6564  -74.4843 C.2       9 UNK         0.5020 
     29 O         -69.7440   28.6331  -73.8710 O.2       9 UNK        -0.5274 
     30 CA        -70.4334   26.3365  -73.7439 C.3       8 UNK         0.0270 
     31 CB        -70.1236   26.4185  -72.2367 C.3       8 UNK        -0.1976 
     32 N         -71.8378   25.9784  -73.9260 N.am      8 UNK        -0.4313 
     33 C         -72.2932   24.7976  -74.3567 C.2       8 UNK         0.5041 
     34 O         -71.5755   23.8234  -74.5852 O.2       8 UNK        -0.5577 
     35 CA        -73.8105   24.6898  -74.5922 C.3       7 UNK         0.0284 
     36 CB        -74.5040   24.1529  -73.3313 C.3       7 UNK        -0.1958 
     37 N         -74.4401   25.9530  -75.0040 N.am      7 UNK        -0.4454 
     38 C         -74.1879   26.5896  -76.1590 C.2       7 UNK         0.5089 
     39 O         -73.3675   26.1883  -76.9850 O.2       7 UNK        -0.5125 
     40 CA        -74.9733   27.8823  -76.4410 C.3       6 UNK         0.0408 
     41 CB        -75.2289   28.1028  -77.9441 C.3       6 UNK        -0.1791 
     42 N         -76.2418   27.9259  -75.7120 N.am      6 UNK        -0.4762 
     43 C         -76.8251   29.0344  -75.2397 C.2       6 UNK         0.5007 
     44 O         -76.3589   30.1658  -75.3794 O.2       6 UNK        -0.5032 
     45 CA        -78.1846   28.8432  -74.5349 C.3       5 UNK         0.0783 
     46 C46       -78.5940   30.0847  -73.7007 C.3       11 UNK        -0.0857 
     47 S47       -79.9265   29.6801  -72.5230 S.3       11 UNK        -0.2512 
     48 C48       -79.0291   29.6820  -70.9356 C.3       11 UNK         0.0225 
     49 N         -79.2228   28.5037  -75.5136 N.am      5 UNK        -0.4615 
     50 C         -79.3690   27.3237  -76.1229 C.2       4 UNK         0.5053 
     51 O         -78.6505   26.3451  -75.9038 O.2       4 UNK        -0.5105 
     52 CA        -80.4839   27.2245  -77.1743 C.3       4 UNK         0.0263 
     53 CB        -79.9126   26.7669  -78.5267 C.3       4 UNK        -0.1981 
     54 N         -81.5228   26.2883  -76.7527 N.am      4 UNK        -0.4224 
     55 C         -82.3937   26.4834  -75.7548 C.2       3 UNK         0.4895 
     56 O         -82.4637   27.5292  -75.1092 O.2       3 UNK        -0.5091 
     57 CA        -83.3463   25.3232  -75.4011 C.3       3 UNK         0.0250 
     58 CB        -84.6390   25.3860  -76.2384 C.3       3 UNK        -0.1996 
     59 N         -82.7236   23.9907  -75.4512 N.am      3 UNK        -0.4254 
     60 C         -82.2702   23.3081  -76.5126 C.2       2 UNK         0.5004 
     61 O         -82.3613   23.7032  -77.6762 O.2       2 UNK        -0.5226 
     62 CA        -81.4702   22.0339  -76.1958 C.3       2 UNK         0.0269 
     63 CB        -81.2283   21.1595  -77.4402 C.3       2 UNK        -0.1926 
     64 N         -80.1779   22.4244  -75.6317 N.am      2 UNK        -0.4687 
     65 C         -79.9624   22.7741  -74.3551 C.2       1 UNK         0.5165 
     66 O         -80.8301   22.6500  -73.4890 O.2       1 UNK        -0.5079 
     67 H67       -76.8701   23.0722  -78.0476 H         1 UNK         0.0900 
     68 H68       -75.3428   23.3522  -77.2128 H         1 UNK         0.0900 
     69 H69       -76.5681   24.6203  -77.2545 H         1 UNK         0.0900 
     70 H70       -78.0646   24.7020  -75.5786 H         1 UNK         0.2959 
     71 H71       -78.0232   22.6590  -73.4597 H         1 UNK         0.1079 
     72 H72       -77.8575   25.2922  -73.1820 H         1 UNK         0.0837 
     73 H73       -79.5706   25.2978  -73.4323 H         1 UNK         0.0837 
     74 H74       -76.6151   24.2679  -70.9874 H         1 UNK         0.0685 
     75 H75       -77.4648   24.6304  -69.5044 H         1 UNK         0.0685 
     76 H76       -79.2156   26.9865  -70.6344 H         1 UNK         0.1434 
     77 H77       -76.3407   30.1201  -71.1788 H         1 UNK         0.1329 
     78 H78       -75.0303   26.0625  -70.8391 H         1 UNK         0.1335 
     79 H79       -73.4197   27.8666  -70.7191 H         1 UNK         0.0680 
     80 H80       -73.9355   29.5312  -70.6804 H         1 UNK         0.0680 
     81 H81       -72.5550   30.7937  -72.3955 H         1 UNK         0.1032 
     82 H82       -74.2438   31.0421  -72.7766 H         1 UNK         0.1032 
     83 H83       -73.8260   30.8004  -75.1691 H         1 UNK         0.0461 
     84 H84       -71.3768   33.9592  -75.0722 H         1 UNK         0.3453 
     85 H85       -70.8077   32.3249  -75.3163 H         1 UNK         0.3453 
     86 H86       -71.2617   29.6873  -74.4045 H         1 UNK         0.2984 
     87 H87       -70.8431   28.4078  -77.6716 H         1 UNK         0.0554 
     88 H88       -68.4277   28.7331  -77.1532 H         1 UNK         0.0847 
     89 H89       -68.8343   29.9572  -75.9517 H         1 UNK         0.0847 
     90 H90       -69.1894   30.2360  -77.6470 H         1 UNK         0.0847 
     91 H91       -70.9460   26.8382  -76.1528 H         1 UNK         0.3141 
     92 H92       -69.7791   25.5866  -74.1933 H         1 UNK         0.0743 
     93 H93       -70.3015   25.4621  -71.7450 H         1 UNK         0.0784 
     94 H94       -69.0791   26.6822  -72.0655 H         1 UNK         0.0784 
     95 H95       -70.7384   27.1699  -71.7391 H         1 UNK         0.0784 
     96 H96       -72.5062   26.7244  -73.7746 H         1 UNK         0.3213 
     97 H97       -73.9611   23.9682  -75.3966 H         1 UNK         0.0855 
     98 H98       -74.2784   24.7670  -72.4618 H         1 UNK         0.0814 
     99 H99       -74.1641   23.1411  -73.1063 H         1 UNK         0.0814 
    100 H100      -75.5860   24.1107  -73.4468 H         1 UNK         0.0814 
    101 H101      -75.0827   26.3813  -74.3533 H         1 UNK         0.3105 
    102 H102      -74.3367   28.6913  -76.0838 H         1 UNK         0.0547 
    103 H103      -74.2924   28.1359  -78.5024 H         1 UNK         0.0837 
    104 H104      -75.8388   27.3045  -78.3683 H         1 UNK         0.0837 
    105 H105      -75.7395   29.0486  -78.1249 H         1 UNK         0.0837 
    106 H106      -76.7673   27.0591  -75.6566 H         1 UNK         0.3020 
    107 H107      -78.0628   28.0021  -73.8476 H         1 UNK         0.1245 
    108 H108      -78.9326   30.8936  -74.3506 H         1 UNK         0.0781 
    109 H109      -77.7459   30.4917  -73.1486 H         1 UNK         0.0781 
    110 H110      -79.7335   29.4657  -70.1311 H         1 UNK         0.0836 
    111 H111      -78.6459   30.6849  -70.7404 H         1 UNK         0.0836 
    112 H112      -79.8646   29.2481  -75.7437 H         1 UNK         0.3022 
    113 H113      -80.9408   28.2069  -77.3108 H         1 UNK         0.0747 
    114 H114      -80.6841   26.7476  -79.2967 H         1 UNK         0.0793 
    115 H115      -79.1289   27.4442  -78.8691 H         1 UNK         0.0793 
    116 H116      -79.4768   25.7685  -78.4656 H         1 UNK         0.0793 
    117 H117      -81.5713   25.3984  -77.2401 H         1 UNK         0.3047 
    118 H118      -83.6297   25.4687  -74.3573 H         1 UNK         0.0822 
    119 H119      -85.1471   26.3404  -76.0939 H         1 UNK         0.0807 
    120 H120      -85.3373   24.6005  -75.9497 H         1 UNK         0.0807 
    121 H121      -84.4429   25.2855  -77.3062 H         1 UNK         0.0807 
    122 H122      -82.5033   23.5950  -74.5436 H         1 UNK         0.2946 
    123 H123      -82.0354   21.4449  -75.4693 H         1 UNK         0.1144 
    124 H124      -82.1736   20.8629  -77.8968 H         1 UNK         0.0793 
    125 H125      -80.6925   20.2458  -77.1827 H         1 UNK         0.0793 
    126 H126      -80.6485   21.6836  -78.2012 H         1 UNK         0.0793 
    127 H127      -79.4264   22.5780  -76.2879 H         1 UNK         0.2896 
@<TRIPOS>BOND
     1    1    2 1    
     2    1   67 1    
     3    1   68 1    
     4    1   69 1    
     5    2    3 2    
     6    2    4 am   BACKBONE|DICT|INTERRES
     7    4    5 1    
     8    4   70 1    
     9    5    6 1    
    10    5   65 1    
    11    5   71 1    
    12    6    7 1    
    13    6   72 1    
    14    6   73 1    
    15    7    8 1    
    16    8    9 1    
    17    8   74 1    
    18    8   75 1    
    19    9   10 ar   
    20    9   14 ar   
    21   10   11 ar   
    22   10   76 1    
    23   11   12 ar   
    24   11   48 1    
    25   12   13 ar   
    26   12   77 1    
    27   13   14 ar   
    28   13   15 1    
    29   14   78 1    
    30   15   16 1    
    31   15   79 1    
    32   15   80 1    
    33   16   17 1    
    34   17   18 1    
    35   17   81 1    
    36   17   82 1    
    37   18   19 1    
    38   18   22 1    
    39   18   83 1    
    40   19   20 am   BACKBONE|DICT|INTERRES
    41   19   21 2    
    42   20   84 1    
    43   20   85 1    
    44   22   23 am   BACKBONE|DICT|INTERRES
    45   22   86 1    
    46   23   24 2    
    47   23   25 1    
    48   25   26 1    
    49   25   27 1    
    50   25   87 1    
    51   26   88 1    
    52   26   89 1    
    53   26   90 1    
    54   27   28 am   BACKBONE|DICT|INTERRES
    55   27   91 1    
    56   28   29 2    
    57   28   30 1    
    58   30   31 1    
    59   30   32 1    
    60   30   92 1    
    61   31   93 1    
    62   31   94 1    
    63   31   95 1    
    64   32   33 am   BACKBONE|DICT|INTERRES
    65   32   96 1    
    66   33   34 2    
    67   33   35 1    
    68   35   36 1    
    69   35   37 1    
    70   35   97 1    
    71   36   98 1    
    72   36   99 1    
    73   36  100 1    
    74   37   38 am   BACKBONE|DICT|INTERRES
    75   37  101 1    
    76   38   39 2    
    77   38   40 1    
    78   40   41 1    
    79   40   42 1    
    80   40  102 1    
    81   41  103 1    
    82   41  104 1    
    83   41  105 1    
    84   42   43 am   BACKBONE|DICT|INTERRES
    85   42  106 1    
    86   43   44 2    
    87   43   45 1    
    88   45   46 1    
    89   45   49 1    
    90   45  107 1    
    91   46   47 1    
    92   46  108 1    
    93   46  109 1    
    94   47   48 1    
    95   48  110 1    
    96   48  111 1    
    97   49   50 am   BACKBONE|DICT|INTERRES
    98   49  112 1    
    99   50   51 2    
   100   50   52 1    
   101   52   53 1    
   102   52   54 1    
   103   52  113 1    
   104   53  114 1    
   105   53  115 1    
   106   53  116 1    
   107   54   55 am   BACKBONE|DICT|INTERRES
   108   54  117 1    
   109   55   56 2    
   110   55   57 1    
   111   57   58 1    
   112   57   59 1    
   113   57  118 1    
   114   58  119 1    
   115   58  120 1    
   116   58  121 1    
   117   59   60 am   BACKBONE|DICT|INTERRES
   118   59  122 1    
   119   60   61 2    
   120   60   62 1    
   121   62   63 1    
   122   62   64 1    
   123   62  123 1    
   124   63  124 1    
   125   63  125 1    
   126   63  126 1    
   127   64   65 am   BACKBONE|DICT|INTERRES
   128   64  127 1    
   129   65   66 2    
@<TRIPOS>SUBSTRUCTURE
     1 UNK         1 GROUP             0       ****    0 ROOT    
