@<TRIPOS>MOLECULE
3R135
127   129    1
SMALL
USER_CHARGES


@<TRIPOS>ATOM
      1 CA        -81.4296   24.3680  -70.1516 C.3       0 UNK        -0.1998 
      2 C         -82.1959   25.3236  -71.0541 C.2       0 UNK         0.4909 
      3 O         -83.2987   25.7474  -70.7052 O.2       0 UNK        -0.5240 
      4 N         -81.6149   25.6611  -72.2084 N.am      1 UNK        -0.4739 
      5 CA        -82.2269   26.4810  -73.2580 C.3       1 UNK         0.0864 
      6 C6        -81.1671   27.4004  -73.9178 C.3       11 UNK        -0.0881 
      7 S7        -80.5671   28.7027  -72.7847 S.3       11 UNK        -0.2682 
      8 C8        -78.9291   28.0731  -72.2951 C.3       11 UNK         0.0289 
      9 C9        -77.7958   28.5838  -73.1807 C.ar      11 UNK        -0.0687 
     10 C10       -77.7522   28.2610  -74.5403 C.ar      11 UNK        -0.0823 
     11 C11       -76.6476   28.5981  -75.3223 C.ar      11 UNK        -0.0830 
     12 C12       -75.6194   29.3569  -74.7600 C.ar      11 UNK        -0.1021 
     13 C13       -75.6706   29.7395  -73.4176 C.ar      11 UNK        -0.0753 
     14 C14       -76.7523   29.3354  -72.6273 C.ar      11 UNK        -0.0933 
     15 C15       -74.5616   30.6014  -72.8356 C.3       11 UNK         0.0166 
     16 S16       -73.1055   29.6181  -72.3621 S.3       11 UNK        -0.2615 
     17 C17       -71.9474   30.9595  -71.9181 C.3       11 UNK        -0.0865 
     18 CA        -70.7817   31.1768  -72.9244 C.3       10 UNK         0.0862 
     19 C         -69.5971   30.1834  -72.7336 C.2       10 UNK         0.5551 
     20 N         -68.9901   29.6490  -73.7869 N.am      10 UNK        -0.7319 
     21 O         -69.1958   29.9120  -71.6045 O.2       10 UNK        -0.5018 
     22 N         -71.2584   31.2857  -74.3136 N.am      10 UNK        -0.4509 
     23 C         -70.8018   32.1642  -75.2144 C.2       10 UNK         0.4899 
     24 O         -69.9868   33.0508  -74.9525 O.2       10 UNK        -0.4839 
     25 CA        -71.3424   32.0183  -76.6532 C.3       9 UNK         0.0222 
     26 CB        -70.5350   32.8431  -77.6785 C.3       9 UNK        -0.1966 
     27 N         -71.4576   30.6241  -77.1043 N.am      9 UNK        -0.4218 
     28 C         -70.4885   29.6972  -77.1313 C.2       9 UNK         0.5020 
     29 O         -69.3390   29.8784  -76.7242 O.2       9 UNK        -0.5274 
     30 CA        -70.8815   28.3151  -77.6800 C.3       8 UNK         0.0270 
     31 CB        -69.9042   27.8499  -78.7734 C.3       8 UNK        -0.1976 
     32 N         -70.9270   27.3167  -76.6107 N.am      8 UNK        -0.4313 
     33 C         -71.8071   27.3350  -75.6032 C.2       8 UNK         0.5041 
     34 O         -72.6857   28.1906  -75.4811 O.2       8 UNK        -0.5577 
     35 CA        -71.6774   26.2285  -74.5524 C.3       7 UNK         0.0284 
     36 CB        -70.5701   26.5730  -73.5369 C.3       7 UNK        -0.1958 
     37 N         -72.9670   26.0868  -73.8830 N.am      7 UNK        -0.4454 
     38 C         -73.3114   25.1137  -73.0333 C.2       7 UNK         0.5089 
     39 O         -72.5675   24.1875  -72.7073 O.2       7 UNK        -0.5125 
     40 CA        -74.7350   25.1707  -72.4575 C.3       6 UNK         0.0408 
     41 CB        -74.8532   26.2505  -71.3708 C.3       6 UNK        -0.1791 
     42 N         -75.7543   25.3953  -73.4823 N.am      6 UNK        -0.4762 
     43 C         -76.1356   24.4790  -74.3834 C.2       6 UNK         0.5007 
     44 O         -75.6333   23.3567  -74.4834 O.2       6 UNK        -0.5032 
     45 CA        -77.3060   24.8694  -75.3068 C.3       5 UNK         0.0783 
     46 C46       -76.8816   25.2690  -76.7437 C.3       11 UNK        -0.0857 
     47 S47       -75.5978   26.5672  -76.8698 S.3       11 UNK        -0.2512 
     48 C48       -76.5481   28.1210  -76.7637 C.3       11 UNK         0.0225 
     49 N         -78.2958   23.7931  -75.3215 N.am      5 UNK        -0.4615 
     50 C         -79.1558   23.5467  -74.3263 C.2       4 UNK         0.5053 
     51 O         -79.3007   24.2836  -73.3475 O.2       4 UNK        -0.5105 
     52 CA        -80.0112   22.2798  -74.4759 C.3       4 UNK         0.0263 
     53 CB        -80.7085   21.8762  -73.1628 C.3       4 UNK        -0.1981 
     54 N         -81.0152   22.4692  -75.5236 N.am      4 UNK        -0.4224 
     55 C         -80.8116   22.2293  -76.8277 C.2       3 UNK         0.4895 
     56 O         -79.7367   21.8305  -77.2792 O.2       3 UNK        -0.5091 
     57 CA        -81.9860   22.4534  -77.8006 C.3       3 UNK         0.0250 
     58 CB        -82.6467   21.1112  -78.1558 C.3       3 UNK        -0.1996 
     59 N         -83.0093   23.3668  -77.2873 N.am      3 UNK        -0.4254 
     60 C         -82.8819   24.6992  -77.2402 C.2       2 UNK         0.5004 
     61 O         -81.9056   25.3079  -77.6813 O.2       2 UNK        -0.5226 
     62 CA        -84.0059   25.4992  -76.5482 C.3       2 UNK         0.0269 
     63 CB        -85.2788   24.6788  -76.2321 C.3       2 UNK        -0.1926 
     64 N         -83.4971   26.1619  -75.3392 N.am      2 UNK        -0.4687 
     65 C         -82.8905   25.5590  -74.3044 C.2       1 UNK         0.5165 
     66 O         -82.8212   24.3316  -74.1900 O.2       1 UNK        -0.5079 
     67 H67       -82.0044   23.4552  -69.9980 H         1 UNK         0.0900 
     68 H68       -81.2513   24.8288  -69.1805 H         1 UNK         0.0900 
     69 H69       -80.4651   24.0928  -70.5793 H         1 UNK         0.0900 
     70 H70       -80.7435   25.2104  -72.4770 H         1 UNK         0.2959 
     71 H71       -83.0170   27.1040  -72.8329 H         1 UNK         0.1079 
     72 H72       -80.3405   26.7921  -74.2832 H         1 UNK         0.0837 
     73 H73       -81.5698   27.9164  -74.7908 H         1 UNK         0.0837 
     74 H74       -78.7563   28.3662  -71.2586 H         1 UNK         0.0685 
     75 H75       -78.9308   26.9821  -72.2989 H         1 UNK         0.0685 
     76 H76       -78.5633   27.7183  -74.9960 H         1 UNK         0.1434 
     77 H77       -74.7697   29.6410  -75.3650 H         1 UNK         0.1329 
     78 H78       -76.7772   29.6043  -71.5801 H         1 UNK         0.1335 
     79 H79       -74.2659   31.3528  -73.5697 H         1 UNK         0.0680 
     80 H80       -74.9253   31.1480  -71.9641 H         1 UNK         0.0680 
     81 H81       -72.5060   31.8919  -71.8255 H         1 UNK         0.1032 
     82 H82       -71.5673   30.7672  -70.9132 H         1 UNK         0.1032 
     83 H83       -70.3461   32.1382  -72.6465 H         1 UNK         0.0461 
     84 H84       -68.2128   29.0274  -73.6353 H         1 UNK         0.3453 
     85 H85       -69.2651   29.8838  -74.7345 H         1 UNK         0.3453 
     86 H86       -71.8926   30.5557  -74.6123 H         1 UNK         0.2984 
     87 H87       -72.3573   32.4179  -76.6347 H         1 UNK         0.0554 
     88 H88       -70.9558   32.7546  -78.6800 H         1 UNK         0.0847 
     89 H89       -69.4935   32.5224  -77.7229 H         1 UNK         0.0847 
     90 H90       -70.5387   33.9031  -77.4211 H         1 UNK         0.0847 
     91 H91       -72.3821   30.3375  -77.3966 H         1 UNK         0.3141 
     92 H92       -71.8769   28.3790  -78.1254 H         1 UNK         0.0743 
     93 H93       -68.8920   27.7236  -78.3865 H         1 UNK         0.0784 
     94 H94       -70.2180   26.9013  -79.2095 H         1 UNK         0.0784 
     95 H95       -69.8535   28.5775  -79.5845 H         1 UNK         0.0784 
     96 H96       -70.2090   26.6068  -76.6229 H         1 UNK         0.3213 
     97 H97       -71.4402   25.2904  -75.0583 H         1 UNK         0.0855 
     98 H98       -70.8292   27.4567  -72.9534 H         1 UNK         0.0814 
     99 H99       -69.6226   26.7755  -74.0371 H         1 UNK         0.0814 
    100 H100      -70.3919   25.7553  -72.8392 H         1 UNK         0.0814 
    101 H101      -73.6296   26.8161  -74.1248 H         1 UNK         0.3105 
    102 H102      -74.9384   24.2063  -71.9866 H         1 UNK         0.0547 
    103 H103      -74.0892   26.1194  -70.6033 H         1 UNK         0.0837 
    104 H104      -74.7331   27.2521  -71.7818 H         1 UNK         0.0837 
    105 H105      -75.8225   26.2088  -70.8738 H         1 UNK         0.0837 
    106 H106      -76.1916   26.3064  -73.4894 H         1 UNK         0.3020 
    107 H107      -77.8009   25.7209  -74.8549 H         1 UNK         0.1245 
    108 H108      -77.7568   25.5875  -77.3122 H         1 UNK         0.0781 
    109 H109      -76.4975   24.3912  -77.2666 H         1 UNK         0.0781 
    110 H110      -77.5376   27.9958  -77.2058 H         1 UNK         0.0836 
    111 H111      -76.0427   28.8798  -77.3630 H         1 UNK         0.0836 
    112 H112      -78.2506   23.1381  -76.0917 H         1 UNK         0.3022 
    113 H113      -79.3430   21.4608  -74.7512 H         1 UNK         0.0747 
    114 H114      -79.9784   21.7173  -72.3681 H         1 UNK         0.0793 
    115 H115      -81.4042   22.6392  -72.8149 H         1 UNK         0.0793 
    116 H116      -81.2659   20.9471  -73.2812 H         1 UNK         0.0793 
    117 H117      -81.8847   22.9022  -75.2263 H         1 UNK         0.3047 
    118 H118      -81.5708   22.8793  -78.7169 H         1 UNK         0.0822 
    119 H119      -83.4313   21.2397  -78.9017 H         1 UNK         0.0807 
    120 H120      -83.0887   20.6336  -77.2804 H         1 UNK         0.0807 
    121 H121      -81.9173   20.4152  -78.5728 H         1 UNK         0.0807 
    122 H122      -83.8336   22.9485  -76.8804 H         1 UNK         0.2946 
    123 H123      -84.2875   26.2877  -77.2484 H         1 UNK         0.1144 
    124 H124      -85.6915   24.2278  -77.1357 H         1 UNK         0.0793 
    125 H125      -85.0963   23.8792  -75.5135 H         1 UNK         0.0793 
    126 H126      -86.0570   25.3179  -75.8149 H         1 UNK         0.0793 
    127 H127      -83.5073   27.1722  -75.3662 H         1 UNK         0.2896 
@<TRIPOS>BOND
     1    1    2 1    
     2    1   67 1    
     3    1   68 1    
     4    1   69 1    
     5    2    3 2    
     6    2    4 am   BACKBONE|DICT|INTERRES
     7    4    5 1    
     8    4   70 1    
     9    5    6 1    
    10    5   65 1    
    11    5   71 1    
    12    6    7 1    
    13    6   72 1    
    14    6   73 1    
    15    7    8 1    
    16    8    9 1    
    17    8   74 1    
    18    8   75 1    
    19    9   10 ar   
    20    9   14 ar   
    21   10   11 ar   
    22   10   76 1    
    23   11   12 ar   
    24   11   48 1    
    25   12   13 ar   
    26   12   77 1    
    27   13   14 ar   
    28   13   15 1    
    29   14   78 1    
    30   15   16 1    
    31   15   79 1    
    32   15   80 1    
    33   16   17 1    
    34   17   18 1    
    35   17   81 1    
    36   17   82 1    
    37   18   19 1    
    38   18   22 1    
    39   18   83 1    
    40   19   20 am   BACKBONE|DICT|INTERRES
    41   19   21 2    
    42   20   84 1    
    43   20   85 1    
    44   22   23 am   BACKBONE|DICT|INTERRES
    45   22   86 1    
    46   23   24 2    
    47   23   25 1    
    48   25   26 1    
    49   25   27 1    
    50   25   87 1    
    51   26   88 1    
    52   26   89 1    
    53   26   90 1    
    54   27   28 am   BACKBONE|DICT|INTERRES
    55   27   91 1    
    56   28   29 2    
    57   28   30 1    
    58   30   31 1    
    59   30   32 1    
    60   30   92 1    
    61   31   93 1    
    62   31   94 1    
    63   31   95 1    
    64   32   33 am   BACKBONE|DICT|INTERRES
    65   32   96 1    
    66   33   34 2    
    67   33   35 1    
    68   35   36 1    
    69   35   37 1    
    70   35   97 1    
    71   36   98 1    
    72   36   99 1    
    73   36  100 1    
    74   37   38 am   BACKBONE|DICT|INTERRES
    75   37  101 1    
    76   38   39 2    
    77   38   40 1    
    78   40   41 1    
    79   40   42 1    
    80   40  102 1    
    81   41  103 1    
    82   41  104 1    
    83   41  105 1    
    84   42   43 am   BACKBONE|DICT|INTERRES
    85   42  106 1    
    86   43   44 2    
    87   43   45 1    
    88   45   46 1    
    89   45   49 1    
    90   45  107 1    
    91   46   47 1    
    92   46  108 1    
    93   46  109 1    
    94   47   48 1    
    95   48  110 1    
    96   48  111 1    
    97   49   50 am   BACKBONE|DICT|INTERRES
    98   49  112 1    
    99   50   51 2    
   100   50   52 1    
   101   52   53 1    
   102   52   54 1    
   103   52  113 1    
   104   53  114 1    
   105   53  115 1    
   106   53  116 1    
   107   54   55 am   BACKBONE|DICT|INTERRES
   108   54  117 1    
   109   55   56 2    
   110   55   57 1    
   111   57   58 1    
   112   57   59 1    
   113   57  118 1    
   114   58  119 1    
   115   58  120 1    
   116   58  121 1    
   117   59   60 am   BACKBONE|DICT|INTERRES
   118   59  122 1    
   119   60   61 2    
   120   60   62 1    
   121   62   63 1    
   122   62   64 1    
   123   62  123 1    
   124   63  124 1    
   125   63  125 1    
   126   63  126 1    
   127   64   65 am   BACKBONE|DICT|INTERRES
   128   64  127 1    
   129   65   66 2    
@<TRIPOS>SUBSTRUCTURE
     1 UNK         1 GROUP             0       ****    0 ROOT    
