@<TRIPOS>MOLECULE
3R135
127   129    1
SMALL
USER_CHARGES


@<TRIPOS>ATOM
      1 CA        -81.0448   21.9466  -71.5572 C.3       0 UNK        -0.1998 
      2 C         -81.2279   23.3206  -72.1829 C.2       0 UNK         0.4909 
      3 O         -80.3700   23.7465  -72.9555 O.2       0 UNK        -0.5240 
      4 N         -82.3401   23.9976  -71.8548 N.am      1 UNK        -0.4739 
      5 CA        -82.7597   25.3323  -72.3149 C.3       1 UNK         0.0864 
      6 C6        -82.1873   26.4955  -71.4466 C.3       11 UNK        -0.0881 
      7 S7        -80.3766   26.7300  -71.5155 S.3       11 UNK        -0.2682 
      8 C8        -80.1858   28.3842  -70.7898 C.3       11 UNK         0.0289 
      9 C9        -78.9434   29.0596  -71.3454 C.ar      11 UNK        -0.0687 
     10 C10       -79.0473   29.9027  -72.4552 C.ar      11 UNK        -0.0823 
     11 C11       -77.9092   30.5062  -72.9982 C.ar      11 UNK        -0.0830 
     12 C12       -76.6634   30.2772  -72.4089 C.ar      11 UNK        -0.1021 
     13 C13       -76.5463   29.4275  -71.3051 C.ar      11 UNK        -0.0753 
     14 C14       -77.6897   28.8235  -70.7730 C.ar      11 UNK        -0.0933 
     15 C15       -75.1756   29.1448  -70.7156 C.3       11 UNK         0.0166 
     16 S16       -74.2892   27.9345  -71.7400 S.3       11 UNK        -0.2615 
     17 C17       -72.6106   28.0364  -71.0334 C.3       11 UNK        -0.0865 
     18 CA        -71.7684   29.2296  -71.5660 C.3       10 UNK         0.0862 
     19 C         -70.3410   29.1938  -70.9435 C.2       10 UNK         0.5551 
     20 N         -69.2849   28.9519  -71.7105 N.am      10 UNK        -0.7319 
     21 O         -70.1940   29.3873  -69.7392 O.2       10 UNK        -0.5018 
     22 N         -71.8213   29.3324  -73.0349 N.am      10 UNK        -0.4509 
     23 C         -71.3873   30.3611  -73.7736 C.2       10 UNK         0.4899 
     24 O         -70.8658   31.3679  -73.2918 O.2       10 UNK        -0.4839 
     25 CA        -71.5615   30.2458  -75.3060 C.3       9 UNK         0.0222 
     26 CB        -70.7279   31.2897  -76.0737 C.3       9 UNK        -0.1966 
     27 N         -71.2443   28.9092  -75.8270 N.am      9 UNK        -0.4218 
     28 C         -72.0505   27.8434  -75.7488 C.2       9 UNK         0.5020 
     29 O         -73.1491   27.8706  -75.1978 O.2       9 UNK        -0.5274 
     30 CA        -71.5020   26.5220  -76.2932 C.3       8 UNK         0.0270 
     31 CB        -70.6247   25.8301  -75.2311 C.3       8 UNK        -0.1976 
     32 N         -72.6044   25.6409  -76.6811 N.am      8 UNK        -0.4313 
     33 C         -72.4908   24.6300  -77.5529 C.2       8 UNK         0.5041 
     34 O         -71.4366   24.3355  -78.1198 O.2       8 UNK        -0.5577 
     35 CA        -73.7495   23.8007  -77.8591 C.3       7 UNK         0.0284 
     36 CB        -74.0238   22.7804  -76.7421 C.3       7 UNK        -0.1958 
     37 N         -74.9377   24.6223  -78.0916 N.am      7 UNK        -0.4454 
     38 C         -75.1299   25.3939  -79.1711 C.2       7 UNK         0.5089 
     39 O         -74.3350   25.4742  -80.1083 O.2       7 UNK        -0.5125 
     40 CA        -76.4283   26.2197  -79.2184 C.3       6 UNK         0.0408 
     41 CB        -77.5771   25.4008  -79.8273 C.3       6 UNK        -0.1791 
     42 N         -76.8266   26.7185  -77.9020 N.am      6 UNK        -0.4762 
     43 C         -76.1535   27.6483  -77.2080 C.2       6 UNK         0.5007 
     44 O         -75.1745   28.2503  -77.6500 O.2       6 UNK        -0.5032 
     45 CA        -76.6637   27.9414  -75.7817 C.3       5 UNK         0.0783 
     46 C46       -77.7955   29.0051  -75.8089 C.3       11 UNK        -0.0857 
     47 S47       -77.1292   30.7003  -75.6740 S.3       11 UNK        -0.2512 
     48 C48       -78.0273   31.3823  -74.2384 C.3       11 UNK         0.0225 
     49 N         -77.0772   26.7196  -75.0807 N.am      5 UNK        -0.4615 
     50 C         -76.2692   25.6983  -74.7588 C.2       4 UNK         0.5053 
     51 O         -75.0693   25.6523  -75.0190 O.2       4 UNK        -0.5105 
     52 CA        -76.9300   24.4834  -74.0882 C.3       4 UNK         0.0263 
     53 CB        -77.1416   24.7435  -72.5887 C.3       4 UNK        -0.1981 
     54 N         -78.2010   24.1200  -74.7194 N.am      4 UNK        -0.4224 
     55 C         -78.3281   23.7345  -75.9980 C.2       3 UNK         0.4895 
     56 O         -77.3760   23.5650  -76.7592 O.2       3 UNK        -0.5091 
     57 CA        -79.7571   23.5670  -76.5392 C.3       3 UNK         0.0250 
     58 CB        -80.3245   22.1855  -76.1775 C.3       3 UNK        -0.1996 
     59 N         -80.6684   24.6160  -76.0740 N.am      3 UNK        -0.4254 
     60 C         -80.5385   25.9247  -76.3295 C.2       2 UNK         0.5004 
     61 O         -79.6340   26.3913  -77.0221 O.2       2 UNK        -0.5226 
     62 CA        -81.5503   26.8904  -75.6838 C.3       2 UNK         0.0269 
     63 CB        -82.7840   27.0904  -76.5849 C.3       2 UNK        -0.1926 
     64 N         -81.9254   26.5448  -74.3033 N.am      2 UNK        -0.4687 
     65 C         -82.6391   25.5042  -73.8498 C.2       1 UNK         0.5165 
     66 O         -83.1713   24.6706  -74.5864 O.2       1 UNK        -0.5079 
     67 H67       -81.8661   21.6875  -70.8895 H         1 UNK         0.0900 
     68 H68       -80.9860   21.1866  -72.3358 H         1 UNK         0.0900 
     69 H69       -80.1188   21.9192  -70.9836 H         1 UNK         0.0900 
     70 H70       -82.9990   23.5482  -71.2347 H         1 UNK         0.2959 
     71 H71       -83.8378   25.3459  -72.1455 H         1 UNK         0.1079 
     72 H72       -82.6789   27.4309  -71.7205 H         1 UNK         0.0837 
     73 H73       -82.4550   26.3273  -70.4024 H         1 UNK         0.0837 
     74 H74       -81.0649   28.9949  -71.0006 H         1 UNK         0.0685 
     75 H75       -80.1214   28.2988  -69.7040 H         1 UNK         0.0685 
     76 H76       -80.0146   30.0715  -72.9084 H         1 UNK         0.1434 
     77 H77       -75.7777   30.7312  -72.8327 H         1 UNK         0.1329 
     78 H78       -77.6035   28.1549  -69.9274 H         1 UNK         0.1335 
     79 H79       -74.6055   30.0732  -70.6618 H         1 UNK         0.0680 
     80 H80       -75.2599   28.7677  -69.6953 H         1 UNK         0.0680 
     81 H81       -72.6904   28.0774  -69.9452 H         1 UNK         0.1032 
     82 H82       -72.1075   27.0944  -71.2605 H         1 UNK         0.1032 
     83 H83       -72.2275   30.1443  -71.1873 H         1 UNK         0.0461 
     84 H84       -68.3660   28.9329  -71.2973 H         1 UNK         0.3453 
     85 H85       -69.3995   28.8031  -72.6996 H         1 UNK         0.3453 
     86 H86       -72.3075   28.5832  -73.5176 H         1 UNK         0.2984 
     87 H87       -72.6135   30.4531  -75.5143 H         1 UNK         0.0554 
     88 H88       -70.9965   32.3040  -75.7750 H         1 UNK         0.0847 
     89 H89       -70.8955   31.2201  -77.1487 H         1 UNK         0.0847 
     90 H90       -69.6597   31.1679  -75.8903 H         1 UNK         0.0847 
     91 H91       -70.3329   28.7967  -76.2481 H         1 UNK         0.3141 
     92 H92       -70.8992   26.7450  -77.1763 H         1 UNK         0.0743 
     93 H93       -71.2027   25.5745  -74.3418 H         1 UNK         0.0784 
     94 H94       -70.1803   24.9120  -75.6157 H         1 UNK         0.0784 
     95 H95       -69.8043   26.4750  -74.9138 H         1 UNK         0.0784 
     96 H96       -73.4976   25.8363  -76.2274 H         1 UNK         0.3213 
     97 H97       -73.5555   23.2396  -78.7759 H         1 UNK         0.0855 
     98 H98       -74.2279   23.2655  -75.7879 H         1 UNK         0.0814 
     99 H99       -73.1645   22.1249  -76.5955 H         1 UNK         0.0814 
    100 H100      -74.8777   22.1473  -76.9841 H         1 UNK         0.0814 
    101 H101      -75.6750   24.5721  -77.3961 H         1 UNK         0.3105 
    102 H102      -76.2511   27.0827  -79.8636 H         1 UNK         0.0547 
    103 H103      -77.3243   25.0655  -80.8339 H         1 UNK         0.0837 
    104 H104      -77.8007   24.5130  -79.2357 H         1 UNK         0.0837 
    105 H105      -78.4904   25.9915  -79.9009 H         1 UNK         0.0837 
    106 H106      -77.6713   26.3283  -77.4938 H         1 UNK         0.3020 
    107 H107      -75.8160   28.3338  -75.2134 H         1 UNK         0.1245 
    108 H108      -78.4956   28.8324  -74.9924 H         1 UNK         0.0781 
    109 H109      -78.4042   28.9352  -76.7131 H         1 UNK         0.0781 
    110 H110      -79.0728   31.5250  -74.5160 H         1 UNK         0.0836 
    111 H111      -77.6334   32.3744  -74.0137 H         1 UNK         0.0836 
    112 H112      -78.0580   26.6362  -74.8627 H         1 UNK         0.3022 
    113 H113      -76.2540   23.6326  -74.1946 H         1 UNK         0.0747 
    114 H114      -77.5685   23.8736  -72.0895 H         1 UNK         0.0793 
    115 H115      -76.1957   24.9735  -72.0962 H         1 UNK         0.0793 
    116 H116      -77.8088   25.5883  -72.4174 H         1 UNK         0.0793 
    117 H117      -79.0364   24.1588  -74.1347 H         1 UNK         0.3047 
    118 H118      -79.7052   23.6391  -77.6275 H         1 UNK         0.0822 
    119 H119      -81.3060   22.0305  -76.6255 H         1 UNK         0.0807 
    120 H120      -80.4247   22.0577  -75.0993 H         1 UNK         0.0807 
    121 H121      -79.6727   21.3898  -76.5410 H         1 UNK         0.0807 
    122 H122      -81.4451   24.3310  -75.4860 H         1 UNK         0.2946 
    123 H123      -81.0439   27.8548  -75.6144 H         1 UNK         0.1144 
    124 H124      -83.4753   27.8157  -76.1559 H         1 UNK         0.0793 
    125 H125      -83.3298   26.1609  -76.7483 H         1 UNK         0.0793 
    126 H126      -82.4886   27.4652  -77.5658 H         1 UNK         0.0793 
    127 H127      -81.4752   27.1047  -73.5896 H         1 UNK         0.2896 
@<TRIPOS>BOND
     1    1    2 1    
     2    1   67 1    
     3    1   68 1    
     4    1   69 1    
     5    2    3 2    
     6    2    4 am   BACKBONE|DICT|INTERRES
     7    4    5 1    
     8    4   70 1    
     9    5    6 1    
    10    5   65 1    
    11    5   71 1    
    12    6    7 1    
    13    6   72 1    
    14    6   73 1    
    15    7    8 1    
    16    8    9 1    
    17    8   74 1    
    18    8   75 1    
    19    9   10 ar   
    20    9   14 ar   
    21   10   11 ar   
    22   10   76 1    
    23   11   12 ar   
    24   11   48 1    
    25   12   13 ar   
    26   12   77 1    
    27   13   14 ar   
    28   13   15 1    
    29   14   78 1    
    30   15   16 1    
    31   15   79 1    
    32   15   80 1    
    33   16   17 1    
    34   17   18 1    
    35   17   81 1    
    36   17   82 1    
    37   18   19 1    
    38   18   22 1    
    39   18   83 1    
    40   19   20 am   BACKBONE|DICT|INTERRES
    41   19   21 2    
    42   20   84 1    
    43   20   85 1    
    44   22   23 am   BACKBONE|DICT|INTERRES
    45   22   86 1    
    46   23   24 2    
    47   23   25 1    
    48   25   26 1    
    49   25   27 1    
    50   25   87 1    
    51   26   88 1    
    52   26   89 1    
    53   26   90 1    
    54   27   28 am   BACKBONE|DICT|INTERRES
    55   27   91 1    
    56   28   29 2    
    57   28   30 1    
    58   30   31 1    
    59   30   32 1    
    60   30   92 1    
    61   31   93 1    
    62   31   94 1    
    63   31   95 1    
    64   32   33 am   BACKBONE|DICT|INTERRES
    65   32   96 1    
    66   33   34 2    
    67   33   35 1    
    68   35   36 1    
    69   35   37 1    
    70   35   97 1    
    71   36   98 1    
    72   36   99 1    
    73   36  100 1    
    74   37   38 am   BACKBONE|DICT|INTERRES
    75   37  101 1    
    76   38   39 2    
    77   38   40 1    
    78   40   41 1    
    79   40   42 1    
    80   40  102 1    
    81   41  103 1    
    82   41  104 1    
    83   41  105 1    
    84   42   43 am   BACKBONE|DICT|INTERRES
    85   42  106 1    
    86   43   44 2    
    87   43   45 1    
    88   45   46 1    
    89   45   49 1    
    90   45  107 1    
    91   46   47 1    
    92   46  108 1    
    93   46  109 1    
    94   47   48 1    
    95   48  110 1    
    96   48  111 1    
    97   49   50 am   BACKBONE|DICT|INTERRES
    98   49  112 1    
    99   50   51 2    
   100   50   52 1    
   101   52   53 1    
   102   52   54 1    
   103   52  113 1    
   104   53  114 1    
   105   53  115 1    
   106   53  116 1    
   107   54   55 am   BACKBONE|DICT|INTERRES
   108   54  117 1    
   109   55   56 2    
   110   55   57 1    
   111   57   58 1    
   112   57   59 1    
   113   57  118 1    
   114   58  119 1    
   115   58  120 1    
   116   58  121 1    
   117   59   60 am   BACKBONE|DICT|INTERRES
   118   59  122 1    
   119   60   61 2    
   120   60   62 1    
   121   62   63 1    
   122   62   64 1    
   123   62  123 1    
   124   63  124 1    
   125   63  125 1    
   126   63  126 1    
   127   64   65 am   BACKBONE|DICT|INTERRES
   128   64  127 1    
   129   65   66 2    
@<TRIPOS>SUBSTRUCTURE
     1 UNK         1 GROUP             0       ****    0 ROOT    
