@<TRIPOS>MOLECULE
3R135
127   129    1
SMALL
USER_CHARGES


@<TRIPOS>ATOM
      1 CA        -82.1502   30.8076  -75.4463 C.3       0 UNK        -0.1998 
      2 C         -81.4152   29.6375  -74.8103 C.2       0 UNK         0.4909 
      3 O         -80.6138   28.9837  -75.4777 O.2       0 UNK        -0.5240 
      4 N         -81.6759   29.3758  -73.5235 N.am      1 UNK        -0.4739 
      5 CA        -81.0776   28.2791  -72.7562 C.3       1 UNK         0.0864 
      6 C6        -81.2358   28.4680  -71.2239 C.3       11 UNK        -0.0881 
      7 S7        -80.7095   30.1197  -70.6424 S.3       11 UNK        -0.2682 
      8 C8        -79.0315   29.8056  -69.9978 C.3       11 UNK         0.0289 
      9 C9        -78.0406   29.3401  -71.0605 C.ar      11 UNK        -0.0687 
     10 C10       -77.1771   28.2760  -70.7810 C.ar      11 UNK        -0.0823 
     11 C11       -76.2576   27.8374  -71.7372 C.ar      11 UNK        -0.0830 
     12 C12       -76.2171   28.4595  -72.9862 C.ar      11 UNK        -0.1021 
     13 C13       -77.0551   29.5398  -73.2754 C.ar      11 UNK        -0.0753 
     14 C14       -77.9578   29.9808  -72.3034 C.ar      11 UNK        -0.0933 
     15 C15       -77.0117   30.2126  -74.6423 C.3       11 UNK         0.0166 
     16 S16       -75.3172   30.5437  -75.2356 S.3       11 UNK        -0.2615 
     17 C17       -74.8247   32.0062  -74.2595 C.3       11 UNK        -0.0865 
     18 CA        -73.7534   31.7745  -73.1501 C.3       10 UNK         0.0862 
     19 C         -74.3599   31.3996  -71.7608 C.2       10 UNK         0.5551 
     20 N         -73.8957   30.3685  -71.0732 N.am      10 UNK        -0.7319 
     21 O         -75.2276   32.1144  -71.2645 O.2       10 UNK        -0.5018 
     22 N         -72.5284   31.0928  -73.6298 N.am      10 UNK        -0.4509 
     23 C         -72.2119   29.7899  -73.6607 C.2       10 UNK         0.4899 
     24 O         -72.9147   28.8790  -73.2217 O.2       10 UNK        -0.4839 
     25 CA        -70.8137   29.4660  -74.2184 C.3       9 UNK         0.0222 
     26 CB        -69.7347   29.7540  -73.1600 C.3       9 UNK        -0.1966 
     27 N         -70.6991   28.0661  -74.6344 N.am      9 UNK        -0.4218 
     28 C         -71.2403   27.5468  -75.7438 C.2       9 UNK         0.5020 
     29 O         -71.8172   28.2260  -76.5961 O.2       9 UNK        -0.5274 
     30 CA        -71.0752   26.0276  -75.9542 C.3       8 UNK         0.0270 
     31 CB        -70.9391   25.2377  -74.6353 C.3       8 UNK        -0.1976 
     32 N         -72.2259   25.5084  -76.6910 N.am      8 UNK        -0.4313 
     33 C         -72.2350   25.1462  -77.9815 C.2       8 UNK         0.5041 
     34 O         -71.2284   25.1219  -78.6923 O.2       8 UNK        -0.5577 
     35 CA        -73.5876   24.7277  -78.5971 C.3       7 UNK         0.0284 
     36 CB        -73.6871   23.1963  -78.6896 C.3       7 UNK        -0.1958 
     37 N         -74.7425   25.2304  -77.8525 N.am      7 UNK        -0.4454 
     38 C         -75.1065   26.5167  -77.7698 C.2       7 UNK         0.5089 
     39 O         -74.6189   27.4079  -78.4649 O.2       7 UNK        -0.5125 
     40 CA        -76.1794   26.8779  -76.7251 C.3       6 UNK         0.0408 
     41 CB        -77.5077   27.2302  -77.4126 C.3       6 UNK        -0.1791 
     42 N         -76.4307   25.8415  -75.7181 N.am      6 UNK        -0.4762 
     43 C         -75.5554   25.3665  -74.8193 C.2       6 UNK         0.5007 
     44 O         -74.3781   25.7165  -74.7614 O.2       6 UNK        -0.5032 
     45 CA        -76.0811   24.2720  -73.8727 C.3       5 UNK         0.0783 
     46 C46       -76.9777   24.8611  -72.7501 C.3       11 UNK        -0.0857 
     47 S47       -76.0903   25.1047  -71.1777 S.3       11 UNK        -0.2512 
     48 C48       -75.2782   26.7175  -71.4171 C.3       11 UNK         0.0225 
     49 N         -76.7930   23.2546  -74.6463 N.am      5 UNK        -0.4615 
     50 C         -76.2111   22.2568  -75.3227 C.2       4 UNK         0.5053 
     51 O         -74.9991   22.0452  -75.3193 O.2       4 UNK        -0.5105 
     52 CA        -77.1339   21.3390  -76.1454 C.3       4 UNK         0.0263 
     53 CB        -77.4899   20.0785  -75.3410 C.3       4 UNK        -0.1981 
     54 N         -78.3691   22.0004  -76.5772 N.am      4 UNK        -0.4224 
     55 C         -78.4267   22.9534  -77.5181 C.2       3 UNK         0.4895 
     56 O         -77.4509   23.3440  -78.1590 O.2       3 UNK        -0.5091 
     57 CA        -79.7996   23.6095  -77.7543 C.3       3 UNK         0.0250 
     58 CB        -80.6212   22.7889  -78.7615 C.3       3 UNK        -0.1996 
     59 N         -80.5937   23.8312  -76.5360 N.am      3 UNK        -0.4254 
     60 C         -80.1889   24.5513  -75.4808 C.2       2 UNK         0.5004 
     61 O         -79.0525   25.0140  -75.3642 O.2       2 UNK        -0.5226 
     62 CA        -81.1924   24.7748  -74.3466 C.3       2 UNK         0.0269 
     63 CB        -81.1457   23.6195  -73.3326 C.3       2 UNK        -0.1926 
     64 N         -80.8234   26.0248  -73.6872 N.am      2 UNK        -0.4687 
     65 C         -81.6786   26.9370  -73.2193 C.2       1 UNK         0.5165 
     66 O         -82.8987   26.7646  -73.1599 O.2       1 UNK        -0.5079 
     67 H67       -81.4354   31.5435  -75.8135 H         1 UNK         0.0900 
     68 H68       -82.7472   30.4613  -76.2895 H         1 UNK         0.0900 
     69 H69       -82.8154   31.3039  -74.7398 H         1 UNK         0.0900 
     70 H70       -82.3477   29.9387  -73.0219 H         1 UNK         0.2959 
     71 H71       -80.0093   28.2664  -72.9804 H         1 UNK         0.1079 
     72 H72       -80.6746   27.7007  -70.6871 H         1 UNK         0.0837 
     73 H73       -82.2792   28.3391  -70.9293 H         1 UNK         0.0837 
     74 H74       -79.1019   29.0784  -69.1874 H         1 UNK         0.0685 
     75 H75       -78.6516   30.7263  -69.5534 H         1 UNK         0.0685 
     76 H76       -77.2116   27.7892  -69.8159 H         1 UNK         0.1434 
     77 H77       -75.5058   28.1226  -73.7277 H         1 UNK         0.1329 
     78 H78       -78.6120   30.8141  -72.5193 H         1 UNK         0.1335 
     79 H79       -77.5799   31.1439  -74.6400 H         1 UNK         0.0680 
     80 H80       -77.5077   29.5562  -75.3579 H         1 UNK         0.0680 
     81 H81       -75.7138   32.4899  -73.8509 H         1 UNK         0.1032 
     82 H82       -74.4262   32.7264  -74.9752 H         1 UNK         0.1032 
     83 H83       -73.3671   32.7730  -72.9399 H         1 UNK         0.0461 
     84 H84       -74.2911   30.1501  -70.1740 H         1 UNK         0.3453 
     85 H85       -73.2978   29.7068  -71.5540 H         1 UNK         0.3453 
     86 H86       -71.8291   31.7290  -73.9839 H         1 UNK         0.2984 
     87 H87       -70.6303   30.1016  -75.0875 H         1 UNK         0.0554 
     88 H88       -69.7511   30.8005  -72.8528 H         1 UNK         0.0847 
     89 H89       -68.7353   29.5499  -73.5452 H         1 UNK         0.0847 
     90 H90       -69.8783   29.1510  -72.2623 H         1 UNK         0.0847 
     91 H91       -70.2787   27.4332  -73.9703 H         1 UNK         0.3141 
     92 H92       -70.1606   25.8823  -76.5323 H         1 UNK         0.0743 
     93 H93       -70.0061   25.4713  -74.1214 H         1 UNK         0.0784 
     94 H94       -71.7618   25.4482  -73.9500 H         1 UNK         0.0784 
     95 H95       -70.9332   24.1633  -74.8209 H         1 UNK         0.0784 
     96 H96       -73.1085   25.5535  -76.1868 H         1 UNK         0.3213 
     97 H97       -73.6308   25.1390  -79.6078 H         1 UNK         0.0855 
     98 H98       -73.6412   22.7294  -77.7048 H         1 UNK         0.0814 
     99 H99       -72.8681   22.7874  -79.2829 H         1 UNK         0.0814 
    100 H100      -74.6184   22.8862  -79.1645 H         1 UNK         0.0814 
    101 H101      -75.2512   24.5637  -77.2890 H         1 UNK         0.3105 
    102 H102      -75.8210   27.7609  -76.1952 H         1 UNK         0.0547 
    103 H103      -77.3775   28.0528  -78.1169 H         1 UNK         0.0837 
    104 H104      -78.2627   27.5397  -76.6891 H         1 UNK         0.0837 
    105 H105      -77.9059   26.3814  -77.9690 H         1 UNK         0.0837 
    106 H106      -77.3890   25.4944  -75.6721 H         1 UNK         0.3020 
    107 H107      -75.2113   23.7924  -73.4167 H         1 UNK         0.1245 
    108 H108      -77.7855   24.1661  -72.5168 H         1 UNK         0.0781 
    109 H109      -77.4847   25.7796  -73.0513 H         1 UNK         0.0781 
    110 H110      -74.5217   26.6280  -72.1982 H         1 UNK         0.0836 
    111 H111      -74.7348   26.9747  -70.5070 H         1 UNK         0.0836 
    112 H112      -77.7844   23.4108  -74.7707 H         1 UNK         0.3022 
    113 H113      -76.5812   21.0321  -77.0362 H         1 UNK         0.0747 
    114 H114      -78.0823   19.3824  -75.9351 H         1 UNK         0.0793 
    115 H115      -76.5889   19.5487  -75.0280 H         1 UNK         0.0793 
    116 H116      -78.0556   20.3192  -74.4399 H         1 UNK         0.0793 
    117 H117      -79.2224   21.7369  -76.1061 H         1 UNK         0.3047 
    118 H118      -79.6114   24.5906  -78.1951 H         1 UNK         0.0822 
    119 H119      -81.5434   23.3024  -79.0343 H         1 UNK         0.0807 
    120 H120      -80.8867   21.8082  -78.3648 H         1 UNK         0.0807 
    121 H121      -80.0600   22.6267  -79.6831 H         1 UNK         0.0807 
    122 H122      -81.5358   23.4664  -76.5428 H         1 UNK         0.2946 
    123 H123      -82.1939   24.8558  -74.7758 H         1 UNK         0.1144 
    124 H124      -80.1523   23.5009  -72.8988 H         1 UNK         0.0793 
    125 H125      -81.4140   22.6725  -73.8025 H         1 UNK         0.0793 
    126 H126      -81.8480   23.7846  -72.5153 H         1 UNK         0.0793 
    127 H127      -79.8446   26.2628  -73.7907 H         1 UNK         0.2896 
@<TRIPOS>BOND
     1    1    2 1    
     2    1   67 1    
     3    1   68 1    
     4    1   69 1    
     5    2    3 2    
     6    2    4 am   BACKBONE|DICT|INTERRES
     7    4    5 1    
     8    4   70 1    
     9    5    6 1    
    10    5   65 1    
    11    5   71 1    
    12    6    7 1    
    13    6   72 1    
    14    6   73 1    
    15    7    8 1    
    16    8    9 1    
    17    8   74 1    
    18    8   75 1    
    19    9   10 ar   
    20    9   14 ar   
    21   10   11 ar   
    22   10   76 1    
    23   11   12 ar   
    24   11   48 1    
    25   12   13 ar   
    26   12   77 1    
    27   13   14 ar   
    28   13   15 1    
    29   14   78 1    
    30   15   16 1    
    31   15   79 1    
    32   15   80 1    
    33   16   17 1    
    34   17   18 1    
    35   17   81 1    
    36   17   82 1    
    37   18   19 1    
    38   18   22 1    
    39   18   83 1    
    40   19   20 am   BACKBONE|DICT|INTERRES
    41   19   21 2    
    42   20   84 1    
    43   20   85 1    
    44   22   23 am   BACKBONE|DICT|INTERRES
    45   22   86 1    
    46   23   24 2    
    47   23   25 1    
    48   25   26 1    
    49   25   27 1    
    50   25   87 1    
    51   26   88 1    
    52   26   89 1    
    53   26   90 1    
    54   27   28 am   BACKBONE|DICT|INTERRES
    55   27   91 1    
    56   28   29 2    
    57   28   30 1    
    58   30   31 1    
    59   30   32 1    
    60   30   92 1    
    61   31   93 1    
    62   31   94 1    
    63   31   95 1    
    64   32   33 am   BACKBONE|DICT|INTERRES
    65   32   96 1    
    66   33   34 2    
    67   33   35 1    
    68   35   36 1    
    69   35   37 1    
    70   35   97 1    
    71   36   98 1    
    72   36   99 1    
    73   36  100 1    
    74   37   38 am   BACKBONE|DICT|INTERRES
    75   37  101 1    
    76   38   39 2    
    77   38   40 1    
    78   40   41 1    
    79   40   42 1    
    80   40  102 1    
    81   41  103 1    
    82   41  104 1    
    83   41  105 1    
    84   42   43 am   BACKBONE|DICT|INTERRES
    85   42  106 1    
    86   43   44 2    
    87   43   45 1    
    88   45   46 1    
    89   45   49 1    
    90   45  107 1    
    91   46   47 1    
    92   46  108 1    
    93   46  109 1    
    94   47   48 1    
    95   48  110 1    
    96   48  111 1    
    97   49   50 am   BACKBONE|DICT|INTERRES
    98   49  112 1    
    99   50   51 2    
   100   50   52 1    
   101   52   53 1    
   102   52   54 1    
   103   52  113 1    
   104   53  114 1    
   105   53  115 1    
   106   53  116 1    
   107   54   55 am   BACKBONE|DICT|INTERRES
   108   54  117 1    
   109   55   56 2    
   110   55   57 1    
   111   57   58 1    
   112   57   59 1    
   113   57  118 1    
   114   58  119 1    
   115   58  120 1    
   116   58  121 1    
   117   59   60 am   BACKBONE|DICT|INTERRES
   118   59  122 1    
   119   60   61 2    
   120   60   62 1    
   121   62   63 1    
   122   62   64 1    
   123   62  123 1    
   124   63  124 1    
   125   63  125 1    
   126   63  126 1    
   127   64   65 am   BACKBONE|DICT|INTERRES
   128   64  127 1    
   129   65   66 2    
@<TRIPOS>SUBSTRUCTURE
     1 UNK         1 GROUP             0       ****    0 ROOT    
