@<TRIPOS>MOLECULE
3R135
127   129    1
SMALL
USER_CHARGES


@<TRIPOS>ATOM
      1 CA        -82.6616   25.6402  -71.7502 C.3       0 UNK        -0.1998 
      2 C         -82.4209   26.6114  -72.8965 C.2       0 UNK         0.4909 
      3 O         -83.3752   27.0381  -73.5478 O.2       0 UNK        -0.5240 
      4 N         -81.1530   26.9532  -73.1428 N.am      1 UNK        -0.4739 
      5 CA        -80.6904   27.7886  -74.2579 C.3       1 UNK         0.0864 
      6 C6        -79.9807   29.0914  -73.7848 C.3       11 UNK        -0.0881 
      7 S7        -80.8870   29.9803  -72.4662 S.3       11 UNK        -0.2682 
      8 C8        -79.5448   30.7060  -71.4559 C.3       11 UNK         0.0289 
      9 C9        -78.4478   29.7356  -71.0128 C.ar      11 UNK        -0.0687 
     10 C10       -78.7116   28.3896  -70.7281 C.ar      11 UNK        -0.0823 
     11 C11       -77.6734   27.5140  -70.3912 C.ar      11 UNK        -0.0830 
     12 C12       -76.3698   28.0050  -70.2759 C.ar      11 UNK        -0.1021 
     13 C13       -76.0988   29.3547  -70.5150 C.ar      11 UNK        -0.0753 
     14 C14       -77.1378   30.2092  -70.8931 C.ar      11 UNK        -0.0933 
     15 C15       -74.6864   29.8950  -70.3613 C.3       11 UNK         0.0166 
     16 S16       -73.6485   29.4410  -71.7810 S.3       11 UNK        -0.2615 
     17 C17       -72.2581   30.6061  -71.5767 C.3       11 UNK        -0.0865 
     18 CA        -72.3091   31.7540  -72.6194 C.3       10 UNK         0.0862 
     19 C         -71.2533   32.8530  -72.3001 C.2       10 UNK         0.5551 
     20 N         -70.3019   33.1415  -73.1798 N.am      10 UNK        -0.7319 
     21 O         -71.3049   33.4604  -71.2335 O.2       10 UNK        -0.5018 
     22 N         -72.2485   31.2250  -73.9920 N.am      10 UNK        -0.4509 
     23 C         -72.7214   31.8367  -75.0851 C.2       10 UNK         0.4899 
     24 O         -73.2710   32.9384  -75.0703 O.2       10 UNK        -0.4839 
     25 CA        -72.5422   31.1061  -76.4297 C.3       9 UNK         0.0222 
     26 CB        -71.4387   31.7808  -77.2620 C.3       9 UNK        -0.1966 
     27 N         -72.2201   29.6832  -76.2725 N.am      9 UNK        -0.4218 
     28 C         -73.1214   28.7203  -76.0383 C.2       9 UNK         0.5020 
     29 O         -74.3381   28.9106  -75.9746 O.2       9 UNK        -0.5274 
     30 CA        -72.5557   27.3111  -75.8003 C.3       8 UNK         0.0270 
     31 CB        -72.5198   26.9861  -74.2988 C.3       8 UNK        -0.1976 
     32 N         -73.3426   26.2939  -76.4956 N.am      8 UNK        -0.4313 
     33 C         -73.3261   26.1082  -77.8238 C.2       8 UNK         0.5041 
     34 O         -72.6319   26.7808  -78.5896 O.2       8 UNK        -0.5577 
     35 CA        -74.2231   24.9931  -78.4017 C.3       7 UNK         0.0284 
     36 CB        -73.6562   24.3829  -79.7021 C.3       7 UNK        -0.1958 
     37 N         -74.5672   23.9432  -77.4324 N.am      7 UNK        -0.4454 
     38 C         -73.7182   23.1141  -76.8065 C.2       7 UNK         0.5089 
     39 O         -72.5055   23.0934  -77.0252 O.2       7 UNK        -0.5125 
     40 CA        -74.3104   22.1483  -75.7567 C.3       6 UNK         0.0408 
     41 CB        -73.2542   21.7053  -74.7224 C.3       6 UNK        -0.1791 
     42 N         -75.5116   22.6173  -75.0505 N.am      6 UNK        -0.4762 
     43 C         -75.6870   23.7613  -74.3710 C.2       6 UNK         0.5007 
     44 O         -74.9009   24.7089  -74.4158 O.2       6 UNK        -0.5032 
     45 CA        -76.9558   23.8396  -73.4911 C.3       5 UNK         0.0783 
     46 C46       -77.1059   25.1946  -72.7454 C.3       11 UNK        -0.0857 
     47 S47       -78.5742   25.2100  -71.6520 S.3       11 UNK        -0.2512 
     48 C48       -77.9612   26.0388  -70.1501 C.3       11 UNK         0.0225 
     49 N         -78.1620   23.5152  -74.2570 N.am      5 UNK        -0.4615 
     50 C         -78.6262   22.2925  -74.5375 C.2       4 UNK         0.5053 
     51 O         -78.0123   21.2566  -74.2809 O.2       4 UNK        -0.5105 
     52 CA        -79.9958   22.2177  -75.2273 C.3       4 UNK         0.0263 
     53 CB        -81.1209   22.4734  -74.2096 C.3       4 UNK        -0.1981 
     54 N         -80.0839   23.2056  -76.3020 N.am      4 UNK        -0.4224 
     55 C         -79.9331   22.9377  -77.6059 C.2       3 UNK         0.4895 
     56 O         -79.8064   21.8012  -78.0636 O.2       3 UNK        -0.5091 
     57 CA        -79.9118   24.1376  -78.5750 C.3       3 UNK         0.0250 
     58 CB        -81.3107   24.3733  -79.1671 C.3       3 UNK        -0.1996 
     59 N         -79.4247   25.3864  -77.9781 N.am      3 UNK        -0.4254 
     60 C         -78.1940   25.5651  -77.4778 C.2       2 UNK         0.5004 
     61 O         -77.3210   24.6987  -77.4864 O.2       2 UNK        -0.5226 
     62 CA        -77.9006   26.9162  -76.7998 C.3       2 UNK         0.0269 
     63 CB        -77.3501   27.9229  -77.8220 C.3       2 UNK        -0.1926 
     64 N         -79.0257   27.5262  -76.0706 N.am      2 UNK        -0.4687 
     65 C         -79.7588   26.9169  -75.1259 C.2       1 UNK         0.5165 
     66 O         -79.6962   25.7036  -74.9146 O.2       1 UNK        -0.5079 
     67 H67       -83.3224   26.0900  -71.0097 H         1 UNK         0.0900 
     68 H68       -83.1327   24.7308  -72.1224 H         1 UNK         0.0900 
     69 H69       -81.7338   25.3608  -71.2510 H         1 UNK         0.0900 
     70 H70       -80.4094   26.4949  -72.6316 H         1 UNK         0.2959 
     71 H71       -81.5352   28.0679  -74.8907 H         1 UNK         0.1079 
     72 H72       -79.8620   29.7829  -74.6203 H         1 UNK         0.0837 
     73 H73       -78.9695   28.8662  -73.4438 H         1 UNK         0.0837 
     74 H74       -79.9864   31.1583  -70.5673 H         1 UNK         0.0685 
     75 H75       -79.1062   31.5231  -72.0309 H         1 UNK         0.0685 
     76 H76       -79.7212   28.0108  -70.8036 H         1 UNK         0.1434 
     77 H77       -75.5615   27.3397  -70.0041 H         1 UNK         0.1329 
     78 H78       -76.9239   31.2498  -71.0965 H         1 UNK         0.1335 
     79 H79       -74.2373   29.5080  -69.4454 H         1 UNK         0.0680 
     80 H80       -74.7097   30.9815  -70.2607 H         1 UNK         0.0680 
     81 H81       -71.3235   30.0498  -71.6678 H         1 UNK         0.1032 
     82 H82       -72.2688   31.0022  -70.5592 H         1 UNK         0.1032 
     83 H83       -73.2771   32.2464  -72.5057 H         1 UNK         0.0461 
     84 H84       -70.2558   32.6532  -74.0591 H         1 UNK         0.3453 
     85 H85       -69.6272   33.8580  -72.9621 H         1 UNK         0.3453 
     86 H86       -71.8202   30.3187  -74.0968 H         1 UNK         0.2984 
     87 H87       -73.4821   31.1962  -76.9787 H         1 UNK         0.0554 
     88 H88       -71.6616   32.8365  -77.4237 H         1 UNK         0.0847 
     89 H89       -71.3452   31.3191  -78.2452 H         1 UNK         0.0847 
     90 H90       -70.4666   31.7255  -76.7707 H         1 UNK         0.0847 
     91 H91       -71.2431   29.4313  -76.3283 H         1 UNK         0.3141 
     92 H92       -71.5336   27.2648  -76.1827 H         1 UNK         0.0743 
     93 H93       -71.8818   27.6873  -73.7599 H         1 UNK         0.0784 
     94 H94       -72.1285   25.9848  -74.1173 H         1 UNK         0.0784 
     95 H95       -73.5141   27.0409  -73.8525 H         1 UNK         0.0784 
     96 H96       -73.9484   25.7166  -75.9196 H         1 UNK         0.3213 
     97 H97       -75.1598   25.4830  -78.6649 H         1 UNK         0.0855 
     98 H98       -72.6699   23.9441  -79.5492 H         1 UNK         0.0814 
     99 H99       -73.5546   25.1421  -80.4785 H         1 UNK         0.0814 
    100 H100      -74.3130   23.6072  -80.0954 H         1 UNK         0.0814 
    101 H101      -75.5537   23.9092  -77.1852 H         1 UNK         0.3105 
    102 H102      -74.6187   21.2617  -76.3123 H         1 UNK         0.0547 
    103 H103      -73.6687   20.9921  -74.0101 H         1 UNK         0.0837 
    104 H104      -72.8648   22.5545  -74.1595 H         1 UNK         0.0837 
    105 H105      -72.4065   21.2172  -75.2050 H         1 UNK         0.0837 
    106 H106      -76.2600   21.9351  -74.9677 H         1 UNK         0.3020 
    107 H107      -76.8295   23.0709  -72.7250 H         1 UNK         0.1245 
    108 H108      -77.1943   26.0203  -73.4536 H         1 UNK         0.0781 
    109 H109      -76.2154   25.3994  -72.1482 H         1 UNK         0.0781 
    110 H110      -77.0759   25.5161  -69.7843 H         1 UNK         0.0836 
    111 H111      -78.7146   25.9487  -69.3664 H         1 UNK         0.0836 
    112 H112      -78.7368   24.3186  -74.5055 H         1 UNK         0.3022 
    113 H113      -80.1196   21.2082  -75.6250 H         1 UNK         0.0747 
    114 H114      -82.1023   22.3805  -74.6749 H         1 UNK         0.0793 
    115 H115      -81.0792   21.7521  -73.3924 H         1 UNK         0.0793 
    116 H116      -81.0536   23.4695  -73.7693 H         1 UNK         0.0793 
    117 H117      -80.1299   24.1774  -76.0105 H         1 UNK         0.3047 
    118 H118      -79.2335   23.8793  -79.3910 H         1 UNK         0.0822 
    119 H119      -81.2947   25.1549  -79.9269 H         1 UNK         0.0807 
    120 H120      -82.0302   24.6628  -78.4001 H         1 UNK         0.0807 
    121 H121      -81.6900   23.4685  -79.6445 H         1 UNK         0.0807 
    122 H122      -80.0813   26.1504  -77.9118 H         1 UNK         0.2946 
    123 H123      -77.1152   26.7260  -76.0640 H         1 UNK         0.1144 
    124 H124      -76.9976   28.8311  -77.3322 H         1 UNK         0.0793 
    125 H125      -78.1036   28.2058  -78.5580 H         1 UNK         0.0793 
    126 H126      -76.5009   27.5078  -78.3659 H         1 UNK         0.0793 
    127 H127      -79.1525   28.5182  -76.2108 H         1 UNK         0.2896 
@<TRIPOS>BOND
     1    1    2 1    
     2    1   67 1    
     3    1   68 1    
     4    1   69 1    
     5    2    3 2    
     6    2    4 am   BACKBONE|DICT|INTERRES
     7    4    5 1    
     8    4   70 1    
     9    5    6 1    
    10    5   65 1    
    11    5   71 1    
    12    6    7 1    
    13    6   72 1    
    14    6   73 1    
    15    7    8 1    
    16    8    9 1    
    17    8   74 1    
    18    8   75 1    
    19    9   10 ar   
    20    9   14 ar   
    21   10   11 ar   
    22   10   76 1    
    23   11   12 ar   
    24   11   48 1    
    25   12   13 ar   
    26   12   77 1    
    27   13   14 ar   
    28   13   15 1    
    29   14   78 1    
    30   15   16 1    
    31   15   79 1    
    32   15   80 1    
    33   16   17 1    
    34   17   18 1    
    35   17   81 1    
    36   17   82 1    
    37   18   19 1    
    38   18   22 1    
    39   18   83 1    
    40   19   20 am   BACKBONE|DICT|INTERRES
    41   19   21 2    
    42   20   84 1    
    43   20   85 1    
    44   22   23 am   BACKBONE|DICT|INTERRES
    45   22   86 1    
    46   23   24 2    
    47   23   25 1    
    48   25   26 1    
    49   25   27 1    
    50   25   87 1    
    51   26   88 1    
    52   26   89 1    
    53   26   90 1    
    54   27   28 am   BACKBONE|DICT|INTERRES
    55   27   91 1    
    56   28   29 2    
    57   28   30 1    
    58   30   31 1    
    59   30   32 1    
    60   30   92 1    
    61   31   93 1    
    62   31   94 1    
    63   31   95 1    
    64   32   33 am   BACKBONE|DICT|INTERRES
    65   32   96 1    
    66   33   34 2    
    67   33   35 1    
    68   35   36 1    
    69   35   37 1    
    70   35   97 1    
    71   36   98 1    
    72   36   99 1    
    73   36  100 1    
    74   37   38 am   BACKBONE|DICT|INTERRES
    75   37  101 1    
    76   38   39 2    
    77   38   40 1    
    78   40   41 1    
    79   40   42 1    
    80   40  102 1    
    81   41  103 1    
    82   41  104 1    
    83   41  105 1    
    84   42   43 am   BACKBONE|DICT|INTERRES
    85   42  106 1    
    86   43   44 2    
    87   43   45 1    
    88   45   46 1    
    89   45   49 1    
    90   45  107 1    
    91   46   47 1    
    92   46  108 1    
    93   46  109 1    
    94   47   48 1    
    95   48  110 1    
    96   48  111 1    
    97   49   50 am   BACKBONE|DICT|INTERRES
    98   49  112 1    
    99   50   51 2    
   100   50   52 1    
   101   52   53 1    
   102   52   54 1    
   103   52  113 1    
   104   53  114 1    
   105   53  115 1    
   106   53  116 1    
   107   54   55 am   BACKBONE|DICT|INTERRES
   108   54  117 1    
   109   55   56 2    
   110   55   57 1    
   111   57   58 1    
   112   57   59 1    
   113   57  118 1    
   114   58  119 1    
   115   58  120 1    
   116   58  121 1    
   117   59   60 am   BACKBONE|DICT|INTERRES
   118   59  122 1    
   119   60   61 2    
   120   60   62 1    
   121   62   63 1    
   122   62   64 1    
   123   62  123 1    
   124   63  124 1    
   125   63  125 1    
   126   63  126 1    
   127   64   65 am   BACKBONE|DICT|INTERRES
   128   64  127 1    
   129   65   66 2    
@<TRIPOS>SUBSTRUCTURE
     1 UNK         1 GROUP             0       ****    0 ROOT    
