@<TRIPOS>MOLECULE
3R135
127   129    1
SMALL
USER_CHARGES


@<TRIPOS>ATOM
      1 CA        -80.2652   23.8168  -69.3304 C.3       0 UNK        -0.1998 
      2 C         -81.4595   24.0069  -70.2532 C.2       0 UNK         0.4909 
      3 O         -82.4583   23.3001  -70.1191 O.2       0 UNK        -0.5240 
      4 N         -81.3599   24.9511  -71.1973 N.am      1 UNK        -0.4739 
      5 CA        -82.4010   25.2825  -72.1808 C.3       1 UNK         0.0864 
      6 C6        -82.3646   26.7853  -72.5648 C.3       11 UNK        -0.0881 
      7 S7        -80.7540   27.3623  -73.2106 S.3       11 UNK        -0.2682 
      8 C8        -80.2420   28.5007  -71.8836 C.3       11 UNK         0.0289 
      9 C9        -78.9647   29.2363  -72.2557 C.ar      11 UNK        -0.0687 
     10 C10       -79.0234   30.3379  -73.1124 C.ar      11 UNK        -0.0823 
     11 C11       -77.8567   31.0076  -73.4915 C.ar      11 UNK        -0.0830 
     12 C12       -76.6237   30.5704  -72.9984 C.ar      11 UNK        -0.1021 
     13 C13       -76.5505   29.4677  -72.1399 C.ar      11 UNK        -0.0753 
     14 C14       -77.7272   28.8141  -71.7610 C.ar      11 UNK        -0.0933 
     15 C15       -75.2000   28.9409  -71.6747 C.3       11 UNK         0.0166 
     16 S16       -74.1997   30.2214  -70.8509 S.3       11 UNK        -0.2615 
     17 C17       -72.6099   29.3483  -70.6367 C.3       11 UNK        -0.0865 
     18 CA        -71.5822   29.6900  -71.7499 C.3       10 UNK         0.0862 
     19 C         -70.1693   29.1303  -71.4041 C.2       10 UNK         0.5551 
     20 N         -69.5666   28.2655  -72.2127 N.am      10 UNK        -0.7319 
     21 O         -69.6038   29.4968  -70.3768 O.2       10 UNK        -0.5018 
     22 N         -72.0804   29.2917  -73.0741 N.am      10 UNK        -0.4509 
     23 C         -71.6785   29.7970  -74.2457 C.2       10 UNK         0.4899 
     24 O         -70.8873   30.7350  -74.3540 O.2       10 UNK        -0.4839 
     25 CA        -72.2656   29.1240  -75.5039 C.3       9 UNK         0.0222 
     26 CB        -71.4082   29.3556  -76.7651 C.3       9 UNK        -0.1966 
     27 N         -72.5459   27.6912  -75.3255 N.am      9 UNK        -0.4218 
     28 C         -71.6733   26.7283  -74.9867 C.2       9 UNK         0.5020 
     29 O         -70.4804   26.9315  -74.7574 O.2       9 UNK        -0.5274 
     30 CA        -72.2250   25.3036  -74.8462 C.3       8 UNK         0.0270 
     31 CB        -72.8349   25.0999  -73.4477 C.3       8 UNK        -0.1976 
     32 N         -73.2313   25.0087  -75.8717 N.am      8 UNK        -0.4313 
     33 C         -73.0808   24.0980  -76.8423 C.2       8 UNK         0.5041 
     34 O         -72.0764   23.3967  -76.9757 O.2       8 UNK        -0.5577 
     35 CA        -74.2427   23.9150  -77.8336 C.3       7 UNK         0.0284 
     36 CB        -75.2528   22.8821  -77.3075 C.3       7 UNK        -0.1958 
     37 N         -74.9430   25.1540  -78.1810 N.am      7 UNK        -0.4454 
     38 C         -74.4337   26.1092  -78.9732 C.2       7 UNK         0.5089 
     39 O         -73.2794   26.1033  -79.4010 O.2       7 UNK        -0.5125 
     40 CA        -75.3779   27.2504  -79.3795 C.3       6 UNK         0.0408 
     41 CB        -76.3594   26.7779  -80.4650 C.3       6 UNK        -0.1791 
     42 N         -76.1292   27.7443  -78.2276 N.am      6 UNK        -0.4762 
     43 C         -75.8020   28.8335  -77.5176 C.2       6 UNK         0.5007 
     44 O         -74.8793   29.5907  -77.8177 O.2       6 UNK        -0.5032 
     45 CA        -76.6279   29.1176  -76.2422 C.3       5 UNK         0.0783 
     46 C46       -77.7157   30.1977  -76.4956 C.3       11 UNK        -0.0857 
     47 S47       -77.1031   31.8595  -76.0495 S.3       11 UNK        -0.2512 
     48 C48       -77.9356   32.1842  -74.4572 C.3       11 UNK         0.0225 
     49 N         -77.1818   27.9018  -75.6335 N.am      5 UNK        -0.4615 
     50 C         -76.4367   26.9096  -75.1284 C.2       4 UNK         0.5053 
     51 O         -75.2079   26.9446  -75.0764 O.2       4 UNK        -0.5105 
     52 CA        -77.1536   25.6261  -74.6819 C.3       4 UNK         0.0263 
     53 CB        -77.3330   25.5815  -73.1585 C.3       4 UNK        -0.1981 
     54 N         -78.4393   25.3868  -75.3434 N.am      4 UNK        -0.4224 
     55 C         -78.6076   25.2035  -76.6620 C.2       3 UNK         0.4895 
     56 O         -77.6947   25.3243  -77.4826 O.2       3 UNK        -0.5091 
     57 CA        -80.0296   24.8402  -77.1369 C.3       3 UNK         0.0250 
     58 CB        -80.0288   24.1380  -78.5113 C.3       3 UNK        -0.1996 
     59 N         -80.7910   24.0606  -76.1490 N.am      3 UNK        -0.4254 
     60 C         -80.4685   22.8672  -75.6251 C.2       2 UNK         0.5004 
     61 O         -79.4738   22.2181  -75.9527 O.2       2 UNK        -0.5226 
     62 CA        -81.3959   22.3428  -74.5114 C.3       2 UNK         0.0269 
     63 CB        -80.9084   21.0109  -73.9097 C.3       2 UNK        -0.1926 
     64 N         -81.5407   23.3206  -73.4278 N.am      2 UNK        -0.4687 
     65 C         -82.3925   24.3558  -73.4202 C.2       1 UNK         0.5165 
     66 O         -83.1424   24.6009  -74.3670 O.2       1 UNK        -0.5079 
     67 H67       -79.4494   24.4979  -69.5725 H         1 UNK         0.0900 
     68 H68       -80.5590   23.9943  -68.2962 H         1 UNK         0.0900 
     69 H69       -79.8895   22.7968  -69.4075 H         1 UNK         0.0900 
     70 H70       -80.5135   25.4973  -71.2723 H         1 UNK         0.2959 
     71 H71       -83.3721   25.1075  -71.7117 H         1 UNK         0.1079 
     72 H72       -83.1336   27.0170  -73.3044 H         1 UNK         0.0837 
     73 H73       -82.6328   27.3786  -71.6894 H         1 UNK         0.0837 
     74 H74       -81.0362   29.2256  -71.6980 H         1 UNK         0.0685 
     75 H75       -80.1077   27.9426  -70.9558 H         1 UNK         0.0685 
     76 H76       -79.9811   30.6588  -73.4994 H         1 UNK         0.1434 
     77 H77       -75.7166   31.0741  -73.3038 H         1 UNK         0.1329 
     78 H78       -77.6785   27.9585  -71.1019 H         1 UNK         0.1335 
     79 H79       -74.6700   28.5553  -72.5454 H         1 UNK         0.0680 
     80 H80       -75.3260   28.1001  -70.9906 H         1 UNK         0.0680 
     81 H81       -72.2190   29.6379  -69.6592 H         1 UNK         0.1032 
     82 H82       -72.7791   28.2713  -70.5808 H         1 UNK         0.1032 
     83 H83       -71.4677   30.7758  -71.7610 H         1 UNK         0.0461 
     84 H84       -69.9995   27.9565  -73.0759 H         1 UNK         0.3453 
     85 H85       -68.6516   27.9234  -71.9664 H         1 UNK         0.3453 
     86 H86       -72.7169   28.5111  -73.0905 H         1 UNK         0.2984 
     87 H87       -73.2313   29.6022  -75.6688 H         1 UNK         0.0554 
     88 H88       -71.3040   30.4199  -76.9788 H         1 UNK         0.0847 
     89 H89       -71.8657   28.8957  -77.6415 H         1 UNK         0.0847 
     90 H90       -70.4044   28.9446  -76.6536 H         1 UNK         0.0847 
     91 H91       -73.5292   27.4319  -75.3890 H         1 UNK         0.3141 
     92 H92       -71.3757   24.6233  -74.9377 H         1 UNK         0.0743 
     93 H93       -72.0969   25.2972  -72.6688 H         1 UNK         0.0784 
     94 H94       -73.6833   25.7600  -73.2666 H         1 UNK         0.0784 
     95 H95       -73.1781   24.0738  -73.3146 H         1 UNK         0.0784 
     96 H96       -74.0826   25.5597  -75.8389 H         1 UNK         0.3213 
     97 H97       -73.8151   23.5131  -78.7551 H         1 UNK         0.0855 
     98 H98       -75.7256   23.2065  -76.3818 H         1 UNK         0.0814 
     99 H99       -74.7638   21.9283  -77.1045 H         1 UNK         0.0814 
    100 H100      -76.0426   22.6922  -78.0348 H         1 UNK         0.0814 
    101 H101      -75.9212   25.2196  -77.9053 H         1 UNK         0.3105 
    102 H102      -74.7715   28.0514  -79.8080 H         1 UNK         0.0547 
    103 H103      -76.9960   27.5952  -80.8037 H         1 UNK         0.0837 
    104 H104      -75.8236   26.4023  -81.3378 H         1 UNK         0.0837 
    105 H105      -77.0075   25.9755  -80.1103 H         1 UNK         0.0837 
    106 H106      -76.8774   27.1478  -77.8909 H         1 UNK         0.3020 
    107 H107      -75.9131   29.5024  -75.5116 H         1 UNK         0.1245 
    108 H108      -78.6192   29.9913  -75.9210 H         1 UNK         0.0781 
    109 H109      -78.0453   30.2114  -77.5366 H         1 UNK         0.0781 
    110 H110      -78.9747   32.4505  -74.6570 H         1 UNK         0.0836 
    111 H111      -77.4816   33.0604  -73.9924 H         1 UNK         0.0836 
    112 H112      -78.1859   27.8033  -75.6317 H         1 UNK         0.3022 
    113 H113      -76.4956   24.7999  -74.9514 H         1 UNK         0.0747 
    114 H114      -77.6516   24.5928  -72.8279 H         1 UNK         0.0793 
    115 H115      -76.3983   25.8089  -72.6437 H         1 UNK         0.0793 
    116 H116      -78.0766   26.2997  -72.8219 H         1 UNK         0.0793 
    117 H117      -79.2470   25.2974  -74.7446 H         1 UNK         0.3047 
    118 H118      -80.5581   25.7877  -77.2509 H         1 UNK         0.0822 
    119 H119      -79.5865   24.7762  -79.2774 H         1 UNK         0.0807 
    120 H120      -81.0413   23.8990  -78.8362 H         1 UNK         0.0807 
    121 H121      -79.4543   23.2113  -78.4916 H         1 UNK         0.0807 
    122 H122      -81.6335   24.5001  -75.7914 H         1 UNK         0.2946 
    123 H123      -82.3724   22.1630  -74.9677 H         1 UNK         0.1144 
    124 H124      -81.6009   20.6404  -73.1536 H         1 UNK         0.0793 
    125 H125      -79.9267   21.1119  -73.4450 H         1 UNK         0.0793 
    126 H126      -80.8287   20.2403  -74.6777 H         1 UNK         0.0793 
    127 H127      -80.9433   23.1985  -72.6232 H         1 UNK         0.2896 
@<TRIPOS>BOND
     1    1    2 1    
     2    1   67 1    
     3    1   68 1    
     4    1   69 1    
     5    2    3 2    
     6    2    4 am   BACKBONE|DICT|INTERRES
     7    4    5 1    
     8    4   70 1    
     9    5    6 1    
    10    5   65 1    
    11    5   71 1    
    12    6    7 1    
    13    6   72 1    
    14    6   73 1    
    15    7    8 1    
    16    8    9 1    
    17    8   74 1    
    18    8   75 1    
    19    9   10 ar   
    20    9   14 ar   
    21   10   11 ar   
    22   10   76 1    
    23   11   12 ar   
    24   11   48 1    
    25   12   13 ar   
    26   12   77 1    
    27   13   14 ar   
    28   13   15 1    
    29   14   78 1    
    30   15   16 1    
    31   15   79 1    
    32   15   80 1    
    33   16   17 1    
    34   17   18 1    
    35   17   81 1    
    36   17   82 1    
    37   18   19 1    
    38   18   22 1    
    39   18   83 1    
    40   19   20 am   BACKBONE|DICT|INTERRES
    41   19   21 2    
    42   20   84 1    
    43   20   85 1    
    44   22   23 am   BACKBONE|DICT|INTERRES
    45   22   86 1    
    46   23   24 2    
    47   23   25 1    
    48   25   26 1    
    49   25   27 1    
    50   25   87 1    
    51   26   88 1    
    52   26   89 1    
    53   26   90 1    
    54   27   28 am   BACKBONE|DICT|INTERRES
    55   27   91 1    
    56   28   29 2    
    57   28   30 1    
    58   30   31 1    
    59   30   32 1    
    60   30   92 1    
    61   31   93 1    
    62   31   94 1    
    63   31   95 1    
    64   32   33 am   BACKBONE|DICT|INTERRES
    65   32   96 1    
    66   33   34 2    
    67   33   35 1    
    68   35   36 1    
    69   35   37 1    
    70   35   97 1    
    71   36   98 1    
    72   36   99 1    
    73   36  100 1    
    74   37   38 am   BACKBONE|DICT|INTERRES
    75   37  101 1    
    76   38   39 2    
    77   38   40 1    
    78   40   41 1    
    79   40   42 1    
    80   40  102 1    
    81   41  103 1    
    82   41  104 1    
    83   41  105 1    
    84   42   43 am   BACKBONE|DICT|INTERRES
    85   42  106 1    
    86   43   44 2    
    87   43   45 1    
    88   45   46 1    
    89   45   49 1    
    90   45  107 1    
    91   46   47 1    
    92   46  108 1    
    93   46  109 1    
    94   47   48 1    
    95   48  110 1    
    96   48  111 1    
    97   49   50 am   BACKBONE|DICT|INTERRES
    98   49  112 1    
    99   50   51 2    
   100   50   52 1    
   101   52   53 1    
   102   52   54 1    
   103   52  113 1    
   104   53  114 1    
   105   53  115 1    
   106   53  116 1    
   107   54   55 am   BACKBONE|DICT|INTERRES
   108   54  117 1    
   109   55   56 2    
   110   55   57 1    
   111   57   58 1    
   112   57   59 1    
   113   57  118 1    
   114   58  119 1    
   115   58  120 1    
   116   58  121 1    
   117   59   60 am   BACKBONE|DICT|INTERRES
   118   59  122 1    
   119   60   61 2    
   120   60   62 1    
   121   62   63 1    
   122   62   64 1    
   123   62  123 1    
   124   63  124 1    
   125   63  125 1    
   126   63  126 1    
   127   64   65 am   BACKBONE|DICT|INTERRES
   128   64  127 1    
   129   65   66 2    
@<TRIPOS>SUBSTRUCTURE
     1 UNK         1 GROUP             0       ****    0 ROOT    
