@<TRIPOS>MOLECULE
3R135
127   129    1
SMALL
USER_CHARGES


@<TRIPOS>ATOM
      1 CA        -85.3127   28.9756  -73.1549 C.3       0 UNK        -0.1998 
      2 C         -84.0482   29.1079  -73.9902 C.2       0 UNK         0.4909 
      3 O         -84.1328   29.3645  -75.1914 O.2       0 UNK        -0.5240 
      4 N         -82.8786   28.9419  -73.3598 N.am      1 UNK        -0.4739 
      5 CA        -81.5547   28.9715  -73.9933 C.3       1 UNK         0.0864 
      6 C6        -80.4059   29.0861  -72.9556 C.3       11 UNK        -0.0881 
      7 S7        -80.5900   27.9847  -71.5052 S.3       11 UNK        -0.2682 
      8 C8        -79.4447   28.7647  -70.3248 C.3       11 UNK         0.0289 
      9 C9        -78.0025   28.4902  -70.7149 C.ar      11 UNK        -0.0687 
     10 C10       -77.4239   27.2584  -70.4038 C.ar      11 UNK        -0.0823 
     11 C11       -76.1261   26.9523  -70.8267 C.ar      11 UNK        -0.0830 
     12 C12       -75.3946   27.9134  -71.5330 C.ar      11 UNK        -0.1021 
     13 C13       -75.9494   29.1661  -71.8155 C.ar      11 UNK        -0.0753 
     14 C14       -77.2557   29.4479  -71.4053 C.ar      11 UNK        -0.0933 
     15 C15       -75.1360   30.2244  -72.5448 C.3       11 UNK         0.0166 
     16 S16       -75.8107   30.5737  -74.1965 S.3       11 UNK        -0.2615 
     17 C17       -74.6469   31.8514  -74.7802 C.3       11 UNK        -0.0865 
     18 CA        -73.7894   31.3849  -75.9930 C.3       10 UNK         0.0862 
     19 C         -72.9796   32.5532  -76.6369 C.2       10 UNK         0.5551 
     20 N         -71.8104   32.3049  -77.2151 N.am      10 UNK        -0.7319 
     21 O         -73.4271   33.6977  -76.6430 O.2       10 UNK        -0.5018 
     22 N         -72.9983   30.1671  -75.7300 N.am      10 UNK        -0.4509 
     23 C         -72.0149   30.0343  -74.8336 C.2       10 UNK         0.4899 
     24 O         -71.6930   30.9027  -74.0212 O.2       10 UNK        -0.4839 
     25 CA        -71.2513   28.7054  -74.8414 C.3       9 UNK         0.0222 
     26 CB        -69.7361   28.9549  -74.9917 C.3       9 UNK        -0.1966 
     27 N         -71.5431   28.0236  -73.5836 N.am      9 UNK        -0.4218 
     28 C         -71.5080   26.7129  -73.3048 C.2       9 UNK         0.5020 
     29 O         -71.8299   26.2998  -72.1913 O.2       9 UNK        -0.5274 
     30 CA        -71.0660   25.6994  -74.3816 C.3       8 UNK         0.0270 
     31 CB        -70.6560   24.3402  -73.7810 C.3       8 UNK        -0.1976 
     32 N         -72.1487   25.4833  -75.3378 N.am      8 UNK        -0.4313 
     33 C         -71.9943   25.3794  -76.6664 C.2       8 UNK         0.5041 
     34 O         -70.8990   25.4337  -77.2279 O.2       8 UNK        -0.5577 
     35 CA        -73.2562   25.1856  -77.5352 C.3       7 UNK         0.0284 
     36 CB        -73.3946   23.7122  -77.9519 C.3       7 UNK        -0.1958 
     37 N         -74.4965   25.6141  -76.8872 N.am      7 UNK        -0.4454 
     38 C         -74.7725   26.8675  -76.5059 C.2       7 UNK         0.5089 
     39 O         -74.0900   27.8383  -76.8331 O.2       7 UNK        -0.5125 
     40 CA        -75.9672   27.0727  -75.5552 C.3       6 UNK         0.0408 
     41 CB        -77.1315   27.7688  -76.2738 C.3       6 UNK        -0.1791 
     42 N         -76.4540   25.8543  -74.8963 N.am      6 UNK        -0.4762 
     43 C         -75.7427   25.0914  -74.0506 C.2       6 UNK         0.5007 
     44 O         -74.5514   25.2782  -73.8089 O.2       6 UNK        -0.5032 
     45 CA        -76.4672   23.8954  -73.4112 C.3       5 UNK         0.0783 
     46 C46       -77.4021   24.3428  -72.2583 C.3       11 UNK        -0.0857 
     47 S47       -76.6330   24.1727  -70.6108 S.3       11 UNK        -0.2512 
     48 C48       -75.4899   25.5988  -70.5192 C.3       11 UNK         0.0225 
     49 N         -77.1903   23.1553  -74.4443 N.am      5 UNK        -0.4615 
     50 C         -76.6976   22.0993  -75.1045 C.2       4 UNK         0.5053 
     51 O         -75.6051   21.5869  -74.8615 O.2       4 UNK        -0.5105 
     52 CA        -77.5612   21.5123  -76.2361 C.3       4 UNK         0.0263 
     53 CB        -78.4143   20.3470  -75.7098 C.3       4 UNK        -0.1981 
     54 N         -78.4344   22.4971  -76.8794 N.am      4 UNK        -0.4224 
     55 C         -78.0042   23.5587  -77.5753 C.2       3 UNK         0.4895 
     56 O         -76.8177   23.8102  -77.7821 O.2       3 UNK        -0.5091 
     57 CA        -79.0788   24.5262  -78.0965 C.3       3 UNK         0.0250 
     58 CB        -79.5559   24.0907  -79.4913 C.3       3 UNK        -0.1996 
     59 N         -80.2416   24.6961  -77.2148 N.am      3 UNK        -0.4254 
     60 C         -80.2092   25.0732  -75.9277 C.2       2 UNK         0.5004 
     61 O         -79.1757   25.1996  -75.2661 O.2       2 UNK        -0.5226 
     62 CA        -81.5707   25.3160  -75.2540 C.3       2 UNK         0.0269 
     63 CB        -81.9114   24.1467  -74.3162 C.3       2 UNK        -0.1926 
     64 N         -81.6230   26.5690  -74.4932 N.am      2 UNK        -0.4687 
     65 C         -81.3517   27.7941  -74.9697 C.2       1 UNK         0.5165 
     66 O         -81.0077   28.0240  -76.1304 O.2       1 UNK        -0.5079 
     67 H67       -85.9369   28.1719  -73.5445 H         1 UNK         0.0900 
     68 H68       -85.8859   29.9016  -73.1924 H         1 UNK         0.0900 
     69 H69       -85.0906   28.7565  -72.1106 H         1 UNK         0.0900 
     70 H70       -82.8694   28.7310  -72.3711 H         1 UNK         0.2959 
     71 H71       -81.5191   29.8749  -74.6069 H         1 UNK         0.1079 
     72 H72       -80.3693   30.1138  -72.5910 H         1 UNK         0.0837 
     73 H73       -79.4336   28.9069  -73.4203 H         1 UNK         0.0837 
     74 H74       -79.6387   29.8368  -70.2673 H         1 UNK         0.0685 
     75 H75       -79.6368   28.3649  -69.3281 H         1 UNK         0.0685 
     76 H76       -78.0031   26.5252  -69.8598 H         1 UNK         0.1434 
     77 H77       -74.3885   27.6852  -71.8589 H         1 UNK         0.1329 
     78 H78       -77.6942   30.4081  -71.6401 H         1 UNK         0.1335 
     79 H79       -75.1312   31.1418  -71.9545 H         1 UNK         0.0680 
     80 H80       -74.0962   29.9105  -72.6416 H         1 UNK         0.0680 
     81 H81       -74.0079   32.1867  -73.9621 H         1 UNK         0.1032 
     82 H82       -75.2497   32.7188  -75.0547 H         1 UNK         0.1032 
     83 H83       -74.4910   31.0904  -76.7743 H         1 UNK         0.0461 
     84 H84       -71.4419   31.3680  -77.2363 H         1 UNK         0.3453 
     85 H85       -71.2970   33.0617  -77.6386 H         1 UNK         0.3453 
     86 H86       -73.2544   29.3595  -76.2961 H         1 UNK         0.2984 
     87 H87       -71.5984   28.1100  -75.6854 H         1 UNK         0.0554 
     88 H88       -69.5272   29.5305  -75.8943 H         1 UNK         0.0847 
     89 H89       -69.3361   29.5207  -74.1492 H         1 UNK         0.0847 
     90 H90       -69.1629   28.0332  -75.0674 H         1 UNK         0.0847 
     91 H91       -71.8365   28.6507  -72.8472 H         1 UNK         0.3141 
     92 H92       -70.1907   26.1049  -74.8862 H         1 UNK         0.0743 
     93 H93       -69.8676   24.4630  -73.0373 H         1 UNK         0.0784 
     94 H94       -71.4964   23.8459  -73.2915 H         1 UNK         0.0784 
     95 H95       -70.2750   23.6675  -74.5496 H         1 UNK         0.0784 
     96 H96       -73.0827   25.4409  -74.9301 H         1 UNK         0.3213 
     97 H97       -73.1258   25.7890  -78.4359 H         1 UNK         0.0855 
     98 H98       -72.4863   23.3551  -78.4394 H         1 UNK         0.0814 
     99 H99       -74.2136   23.5753  -78.6582 H         1 UNK         0.0814 
    100 H100      -73.5812   23.0662  -77.0927 H         1 UNK         0.0814 
    101 H101      -75.1637   24.8897  -76.6523 H         1 UNK         0.3105 
    102 H102      -75.6178   27.7331  -74.7605 H         1 UNK         0.0547 
    103 H103      -76.8122   28.7212  -76.6993 H         1 UNK         0.0837 
    104 H104      -77.5220   27.1620  -77.0885 H         1 UNK         0.0837 
    105 H105      -77.9522   27.9811  -75.5881 H         1 UNK         0.0837 
    106 H106      -77.4365   25.6259  -75.0452 H         1 UNK         0.3020 
    107 H107      -75.6954   23.2430  -72.9951 H         1 UNK         0.1245 
    108 H108      -78.2878   23.7059  -72.2325 H         1 UNK         0.0781 
    109 H109      -77.7945   25.3515  -72.4021 H         1 UNK         0.0781 
    110 H110      -74.6467   25.4121  -71.1854 H         1 UNK         0.0836 
    111 H111      -75.0713   25.6388  -69.5130 H         1 UNK         0.0836 
    112 H112      -78.0692   23.5603  -74.7471 H         1 UNK         0.3022 
    113 H113      -76.8810   21.1240  -76.9974 H         1 UNK         0.0747 
    114 H114      -78.9679   19.8639  -76.5152 H         1 UNK         0.0793 
    115 H115      -77.7878   19.5831  -75.2469 H         1 UNK         0.0793 
    116 H116      -79.1322   20.6785  -74.9584 H         1 UNK         0.0793 
    117 H117      -79.4294   22.3746  -76.7612 H         1 UNK         0.3047 
    118 H118      -78.6078   25.5043  -78.1975 H         1 UNK         0.0822 
    119 H119      -80.2259   24.8296  -79.9314 H         1 UNK         0.0807 
    120 H120      -80.0817   23.1356  -79.4598 H         1 UNK         0.0807 
    121 H121      -78.7127   23.9760  -80.1744 H         1 UNK         0.0807 
    122 H122      -81.1434   24.5987  -77.6591 H         1 UNK         0.2946 
    123 H123      -82.3396   25.3785  -76.0270 H         1 UNK         0.1144 
    124 H124      -82.9030   24.2634  -73.8783 H         1 UNK         0.0793 
    125 H125      -81.1916   24.0633  -73.5004 H         1 UNK         0.0793 
    126 H126      -81.9065   23.1974  -74.8536 H         1 UNK         0.0793 
    127 H127      -81.8690   26.4946  -73.5167 H         1 UNK         0.2896 
@<TRIPOS>BOND
     1    1    2 1    
     2    1   67 1    
     3    1   68 1    
     4    1   69 1    
     5    2    3 2    
     6    2    4 am   BACKBONE|DICT|INTERRES
     7    4    5 1    
     8    4   70 1    
     9    5    6 1    
    10    5   65 1    
    11    5   71 1    
    12    6    7 1    
    13    6   72 1    
    14    6   73 1    
    15    7    8 1    
    16    8    9 1    
    17    8   74 1    
    18    8   75 1    
    19    9   10 ar   
    20    9   14 ar   
    21   10   11 ar   
    22   10   76 1    
    23   11   12 ar   
    24   11   48 1    
    25   12   13 ar   
    26   12   77 1    
    27   13   14 ar   
    28   13   15 1    
    29   14   78 1    
    30   15   16 1    
    31   15   79 1    
    32   15   80 1    
    33   16   17 1    
    34   17   18 1    
    35   17   81 1    
    36   17   82 1    
    37   18   19 1    
    38   18   22 1    
    39   18   83 1    
    40   19   20 am   BACKBONE|DICT|INTERRES
    41   19   21 2    
    42   20   84 1    
    43   20   85 1    
    44   22   23 am   BACKBONE|DICT|INTERRES
    45   22   86 1    
    46   23   24 2    
    47   23   25 1    
    48   25   26 1    
    49   25   27 1    
    50   25   87 1    
    51   26   88 1    
    52   26   89 1    
    53   26   90 1    
    54   27   28 am   BACKBONE|DICT|INTERRES
    55   27   91 1    
    56   28   29 2    
    57   28   30 1    
    58   30   31 1    
    59   30   32 1    
    60   30   92 1    
    61   31   93 1    
    62   31   94 1    
    63   31   95 1    
    64   32   33 am   BACKBONE|DICT|INTERRES
    65   32   96 1    
    66   33   34 2    
    67   33   35 1    
    68   35   36 1    
    69   35   37 1    
    70   35   97 1    
    71   36   98 1    
    72   36   99 1    
    73   36  100 1    
    74   37   38 am   BACKBONE|DICT|INTERRES
    75   37  101 1    
    76   38   39 2    
    77   38   40 1    
    78   40   41 1    
    79   40   42 1    
    80   40  102 1    
    81   41  103 1    
    82   41  104 1    
    83   41  105 1    
    84   42   43 am   BACKBONE|DICT|INTERRES
    85   42  106 1    
    86   43   44 2    
    87   43   45 1    
    88   45   46 1    
    89   45   49 1    
    90   45  107 1    
    91   46   47 1    
    92   46  108 1    
    93   46  109 1    
    94   47   48 1    
    95   48  110 1    
    96   48  111 1    
    97   49   50 am   BACKBONE|DICT|INTERRES
    98   49  112 1    
    99   50   51 2    
   100   50   52 1    
   101   52   53 1    
   102   52   54 1    
   103   52  113 1    
   104   53  114 1    
   105   53  115 1    
   106   53  116 1    
   107   54   55 am   BACKBONE|DICT|INTERRES
   108   54  117 1    
   109   55   56 2    
   110   55   57 1    
   111   57   58 1    
   112   57   59 1    
   113   57  118 1    
   114   58  119 1    
   115   58  120 1    
   116   58  121 1    
   117   59   60 am   BACKBONE|DICT|INTERRES
   118   59  122 1    
   119   60   61 2    
   120   60   62 1    
   121   62   63 1    
   122   62   64 1    
   123   62  123 1    
   124   63  124 1    
   125   63  125 1    
   126   63  126 1    
   127   64   65 am   BACKBONE|DICT|INTERRES
   128   64  127 1    
   129   65   66 2    
@<TRIPOS>SUBSTRUCTURE
     1 UNK         1 GROUP             0       ****    0 ROOT    
