@<TRIPOS>MOLECULE
3R135
127   129    1
SMALL
USER_CHARGES


@<TRIPOS>ATOM
      1 CA        -81.1770   30.1813  -76.7781 C.3       0 UNK        -0.1998 
      2 C         -80.6688   28.9636  -76.0221 C.2       0 UNK         0.4909 
      3 O         -81.3240   27.9210  -76.0351 O.2       0 UNK        -0.5240 
      4 N         -79.4928   29.0809  -75.3853 N.am      1 UNK        -0.4739 
      5 CA        -78.8489   28.0597  -74.5352 C.3       1 UNK         0.0864 
      6 C6        -79.6036   27.8444  -73.1923 C.3       11 UNK        -0.0881 
      7 S7        -79.6556   29.3932  -72.2156 S.3       11 UNK        -0.2682 
      8 C8        -78.6636   29.0170  -70.7272 C.3       11 UNK         0.0289 
      9 C9        -77.3717   28.2673  -71.0288 C.ar      11 UNK        -0.0687 
     10 C10       -77.1511   27.0125  -70.4542 C.ar      11 UNK        -0.0823 
     11 C11       -76.0065   26.2777  -70.7702 C.ar      11 UNK        -0.0830 
     12 C12       -75.0757   26.8066  -71.6678 C.ar      11 UNK        -0.1021 
     13 C13       -75.2792   28.0648  -72.2421 C.ar      11 UNK        -0.0753 
     14 C14       -76.4192   28.8004  -71.9035 C.ar      11 UNK        -0.0933 
     15 C15       -74.3054   28.5885  -73.2855 C.3       11 UNK         0.0166 
     16 S16       -72.6230   28.8288  -72.6317 S.3       11 UNK        -0.2615 
     17 C17       -72.7686   30.2930  -71.5437 C.3       11 UNK        -0.0865 
     18 CA        -73.5515   31.5140  -72.1168 C.3       10 UNK         0.0862 
     19 C         -73.5561   32.7244  -71.1336 C.2       10 UNK         0.5551 
     20 N         -73.5423   33.9631  -71.6107 N.am      10 UNK        -0.7319 
     21 O         -73.6044   32.5416  -69.9196 O.2       10 UNK        -0.5018 
     22 N         -73.2001   31.8490  -73.5104 N.am      10 UNK        -0.4509 
     23 C         -71.9954   32.2109  -73.9735 C.2       10 UNK         0.4899 
     24 O         -70.9926   32.3424  -73.2701 O.2       10 UNK        -0.4839 
     25 CA        -71.9246   32.4785  -75.4910 C.3       9 UNK         0.0222 
     26 CB        -70.4840   32.6762  -76.0120 C.3       9 UNK        -0.1966 
     27 N         -72.6527   31.4653  -76.2713 N.am      9 UNK        -0.4218 
     28 C         -72.3486   30.1643  -76.3999 C.2       9 UNK         0.5020 
     29 O         -71.3301   29.6331  -75.9497 O.2       9 UNK        -0.5274 
     30 CA        -73.3617   29.3164  -77.1818 C.3       8 UNK         0.0270 
     31 CB        -73.3178   29.6346  -78.6876 C.3       8 UNK        -0.1976 
     32 N         -73.0626   27.8992  -76.9841 N.am      8 UNK        -0.4313 
     33 C         -73.9664   26.9421  -76.7595 C.2       8 UNK         0.5041 
     34 O         -75.1814   27.1442  -76.6945 O.2       8 UNK        -0.5577 
     35 CA        -73.4211   25.5244  -76.5442 C.3       7 UNK         0.0284 
     36 CB        -72.7777   25.3801  -75.1530 C.3       7 UNK        -0.1958 
     37 N         -74.5262   24.5767  -76.6518 N.am      7 UNK        -0.4454 
     38 C         -74.5076   23.4060  -77.2983 C.2       7 UNK         0.5089 
     39 O         -73.5189   22.9658  -77.8878 O.2       7 UNK        -0.5125 
     40 CA        -75.8228   22.5941  -77.2681 C.3       6 UNK         0.0408 
     41 CB        -75.6381   21.1306  -77.7226 C.3       6 UNK        -0.1791 
     42 N         -76.5087   22.6571  -75.9655 N.am      6 UNK        -0.4762 
     43 C         -76.0017   22.2690  -74.7832 C.2       6 UNK         0.5007 
     44 O         -74.8998   21.7320  -74.6611 O.2       6 UNK        -0.5032 
     45 CA        -76.8298   22.5312  -73.5122 C.3       5 UNK         0.0783 
     46 C46       -76.0936   23.5425  -72.5996 C.3       11 UNK        -0.0857 
     47 S47       -76.8584   23.6533  -70.9485 S.3       11 UNK        -0.2512 
     48 C48       -75.7952   24.9014  -70.1593 C.3       11 UNK         0.0225 
     49 N         -78.1972   22.9845  -73.8002 N.am      5 UNK        -0.4615 
     50 C         -79.2897   22.2403  -73.5891 C.2       4 UNK         0.5053 
     51 O         -79.2636   21.0341  -73.3429 O.2       4 UNK        -0.5105 
     52 CA        -80.6398   22.9683  -73.6213 C.3       4 UNK         0.0263 
     53 CB        -80.7630   23.9327  -72.4278 C.3       4 UNK        -0.1981 
     54 N         -80.8150   23.7140  -74.8656 N.am      4 UNK        -0.4224 
     55 C         -81.6213   23.3436  -75.8711 C.2       3 UNK         0.4895 
     56 O         -82.3050   22.3190  -75.8604 O.2       3 UNK        -0.5091 
     57 CA        -81.7012   24.2713  -77.0990 C.3       3 UNK         0.0250 
     58 CB        -82.9794   25.1235  -77.0441 C.3       3 UNK        -0.1996 
     59 N         -80.5393   25.1522  -77.2363 N.am      3 UNK        -0.4254 
     60 C         -79.3194   24.7273  -77.5975 C.2       2 UNK         0.5004 
     61 O         -79.0721   23.5661  -77.9195 O.2       2 UNK        -0.5226 
     62 CA        -78.1663   25.7444  -77.5524 C.3       2 UNK         0.0269 
     63 CB        -77.8876   26.3105  -78.9531 C.3       2 UNK        -0.1926 
     64 N         -78.3754   26.8492  -76.6167 N.am      2 UNK        -0.4687 
     65 C         -78.5632   26.7411  -75.2928 C.2       1 UNK         0.5165 
     66 O         -78.5531   25.6605  -74.6970 O.2       1 UNK        -0.5079 
     67 H67       -80.4963   31.0281  -76.6937 H         1 UNK         0.0900 
     68 H68       -81.2957   29.9438  -77.8349 H         1 UNK         0.0900 
     69 H69       -82.1470   30.4855  -76.3860 H         1 UNK         0.0900 
     70 H70       -79.0058   29.9654  -75.4269 H         1 UNK         0.2959 
     71 H71       -77.8582   28.4477  -74.2968 H         1 UNK         0.1079 
     72 H72       -79.1397   27.0551  -72.6001 H         1 UNK         0.0837 
     73 H73       -80.6265   27.5118  -73.3757 H         1 UNK         0.0837 
     74 H74       -78.4225   29.9511  -70.2184 H         1 UNK         0.0685 
     75 H75       -79.2878   28.4460  -70.0382 H         1 UNK         0.0685 
     76 H76       -77.8829   26.5900  -69.7790 H         1 UNK         0.1434 
     77 H77       -74.1983   26.2336  -71.9348 H         1 UNK         0.1329 
     78 H78       -76.5962   29.7662  -72.3560 H         1 UNK         0.1335 
     79 H79       -74.6705   29.5019  -73.7534 H         1 UNK         0.0680 
     80 H80       -74.2511   27.8549  -74.0871 H         1 UNK         0.0680 
     81 H81       -71.7554   30.5969  -71.2752 H         1 UNK         0.1032 
     82 H82       -73.2327   29.9607  -70.6132 H         1 UNK         0.1032 
     83 H83       -74.6003   31.2229  -72.1597 H         1 UNK         0.0461 
     84 H84       -73.5111   34.1274  -72.6038 H         1 UNK         0.3453 
     85 H85       -73.5559   34.7404  -70.9692 H         1 UNK         0.3453 
     86 H86       -73.9632   31.8052  -74.1685 H         1 UNK         0.2984 
     87 H87       -72.4538   33.4187  -75.6529 H         1 UNK         0.0554 
     88 H88       -70.0095   33.5303  -75.5273 H         1 UNK         0.0847 
     89 H89       -70.4714   32.8657  -77.0852 H         1 UNK         0.0847 
     90 H90       -69.8555   31.8070  -75.8167 H         1 UNK         0.0847 
     91 H91       -73.5021   31.7926  -76.7114 H         1 UNK         0.3141 
     92 H92       -74.3558   29.5466  -76.7921 H         1 UNK         0.0743 
     93 H93       -72.3305   29.4437  -79.1105 H         1 UNK         0.0784 
     94 H94       -74.0390   29.0303  -79.2384 H         1 UNK         0.0784 
     95 H95       -73.5604   30.6799  -78.8818 H         1 UNK         0.0784 
     96 H96       -72.0755   27.6879  -76.9071 H         1 UNK         0.3213 
     97 H97       -72.6752   25.3278  -77.3175 H         1 UNK         0.0855 
     98 H98       -73.5026   25.5439  -74.3549 H         1 UNK         0.0814 
     99 H99       -71.9669   26.0959  -75.0108 H         1 UNK         0.0814 
    100 H100      -72.3572   24.3835  -75.0170 H         1 UNK         0.0814 
    101 H101      -75.3948   24.9119  -76.2587 H         1 UNK         0.3105 
    102 H102      -76.4814   23.0703  -77.9937 H         1 UNK         0.0547 
    103 H103      -75.2530   21.0842  -78.7419 H         1 UNK         0.0837 
    104 H104      -74.9352   20.5915  -77.0869 H         1 UNK         0.0837 
    105 H105      -76.5846   20.5903  -77.7113 H         1 UNK         0.0837 
    106 H106      -77.4444   23.0397  -75.9731 H         1 UNK         0.3020 
    107 H107      -76.8582   21.5750  -72.9841 H         1 UNK         0.1245 
    108 H108      -76.0883   24.5320  -73.0605 H         1 UNK         0.0781 
    109 H109      -75.0484   23.2595  -72.4579 H         1 UNK         0.0781 
    110 H110      -74.7507   24.5954  -70.2364 H         1 UNK         0.0836 
    111 H111      -76.0239   24.9387  -69.0933 H         1 UNK         0.0836 
    112 H112      -78.3062   23.9755  -74.0058 H         1 UNK         0.3022 
    113 H113      -81.4237   22.2151  -73.5165 H         1 UNK         0.0747 
    114 H114      -81.7435   24.4083  -72.4040 H         1 UNK         0.0793 
    115 H115      -80.6368   23.4015  -71.4834 H         1 UNK         0.0793 
    116 H116      -80.0107   24.7215  -72.4579 H         1 UNK         0.0793 
    117 H117      -80.2514   24.5495  -74.9727 H         1 UNK         0.3047 
    118 H118      -81.7540   23.6359  -77.9859 H         1 UNK         0.0822 
    119 H119      -83.0717   25.7601  -77.9241 H         1 UNK         0.0807 
    120 H120      -82.9980   25.7654  -76.1624 H         1 UNK         0.0807 
    121 H121      -83.8682   24.4922  -77.0058 H         1 UNK         0.0807 
    122 H122      -80.6656   26.1209  -76.9599 H         1 UNK         0.2946 
    123 H123      -77.2772   25.2118  -77.2191 H         1 UNK         0.1144 
    124 H124      -77.6977   25.5087  -79.6682 H         1 UNK         0.0793 
    125 H125      -77.0073   26.9540  -78.9506 H         1 UNK         0.0793 
    126 H126      -78.7304   26.8918  -79.3290 H         1 UNK         0.0793 
    127 H127      -78.3945   27.7769  -77.0144 H         1 UNK         0.2896 
@<TRIPOS>BOND
     1    1    2 1    
     2    1   67 1    
     3    1   68 1    
     4    1   69 1    
     5    2    3 2    
     6    2    4 am   BACKBONE|DICT|INTERRES
     7    4    5 1    
     8    4   70 1    
     9    5    6 1    
    10    5   65 1    
    11    5   71 1    
    12    6    7 1    
    13    6   72 1    
    14    6   73 1    
    15    7    8 1    
    16    8    9 1    
    17    8   74 1    
    18    8   75 1    
    19    9   10 ar   
    20    9   14 ar   
    21   10   11 ar   
    22   10   76 1    
    23   11   12 ar   
    24   11   48 1    
    25   12   13 ar   
    26   12   77 1    
    27   13   14 ar   
    28   13   15 1    
    29   14   78 1    
    30   15   16 1    
    31   15   79 1    
    32   15   80 1    
    33   16   17 1    
    34   17   18 1    
    35   17   81 1    
    36   17   82 1    
    37   18   19 1    
    38   18   22 1    
    39   18   83 1    
    40   19   20 am   BACKBONE|DICT|INTERRES
    41   19   21 2    
    42   20   84 1    
    43   20   85 1    
    44   22   23 am   BACKBONE|DICT|INTERRES
    45   22   86 1    
    46   23   24 2    
    47   23   25 1    
    48   25   26 1    
    49   25   27 1    
    50   25   87 1    
    51   26   88 1    
    52   26   89 1    
    53   26   90 1    
    54   27   28 am   BACKBONE|DICT|INTERRES
    55   27   91 1    
    56   28   29 2    
    57   28   30 1    
    58   30   31 1    
    59   30   32 1    
    60   30   92 1    
    61   31   93 1    
    62   31   94 1    
    63   31   95 1    
    64   32   33 am   BACKBONE|DICT|INTERRES
    65   32   96 1    
    66   33   34 2    
    67   33   35 1    
    68   35   36 1    
    69   35   37 1    
    70   35   97 1    
    71   36   98 1    
    72   36   99 1    
    73   36  100 1    
    74   37   38 am   BACKBONE|DICT|INTERRES
    75   37  101 1    
    76   38   39 2    
    77   38   40 1    
    78   40   41 1    
    79   40   42 1    
    80   40  102 1    
    81   41  103 1    
    82   41  104 1    
    83   41  105 1    
    84   42   43 am   BACKBONE|DICT|INTERRES
    85   42  106 1    
    86   43   44 2    
    87   43   45 1    
    88   45   46 1    
    89   45   49 1    
    90   45  107 1    
    91   46   47 1    
    92   46  108 1    
    93   46  109 1    
    94   47   48 1    
    95   48  110 1    
    96   48  111 1    
    97   49   50 am   BACKBONE|DICT|INTERRES
    98   49  112 1    
    99   50   51 2    
   100   50   52 1    
   101   52   53 1    
   102   52   54 1    
   103   52  113 1    
   104   53  114 1    
   105   53  115 1    
   106   53  116 1    
   107   54   55 am   BACKBONE|DICT|INTERRES
   108   54  117 1    
   109   55   56 2    
   110   55   57 1    
   111   57   58 1    
   112   57   59 1    
   113   57  118 1    
   114   58  119 1    
   115   58  120 1    
   116   58  121 1    
   117   59   60 am   BACKBONE|DICT|INTERRES
   118   59  122 1    
   119   60   61 2    
   120   60   62 1    
   121   62   63 1    
   122   62   64 1    
   123   62  123 1    
   124   63  124 1    
   125   63  125 1    
   126   63  126 1    
   127   64   65 am   BACKBONE|DICT|INTERRES
   128   64  127 1    
   129   65   66 2    
@<TRIPOS>SUBSTRUCTURE
     1 UNK         1 GROUP             0       ****    0 ROOT    
