@<TRIPOS>MOLECULE
3R135
127   129    1
SMALL
USER_CHARGES


@<TRIPOS>ATOM
      1 CA        -82.0425   25.2168  -71.5621 C.3       0 UNK        -0.1998 
      2 C         -82.5468   25.9940  -72.7685 C.2       0 UNK         0.4909 
      3 O         -83.6973   25.8241  -73.1745 O.2       0 UNK        -0.5240 
      4 N         -81.6909   26.8386  -73.3562 N.am      1 UNK        -0.4739 
      5 CA        -81.9807   27.6475  -74.5460 C.3       1 UNK         0.0864 
      6 C6        -81.1307   28.9442  -74.5843 C.3       11 UNK        -0.0881 
      7 S7        -81.5247   30.0799  -73.2118 S.3       11 UNK        -0.2682 
      8 C8        -79.9387   30.9704  -73.0137 C.3       11 UNK         0.0289 
      9 C9        -78.8790   30.2827  -72.1462 C.ar      11 UNK        -0.0687 
     10 C10       -78.9438   28.9300  -71.7901 C.ar      11 UNK        -0.0823 
     11 C11       -77.9530   28.3457  -70.9976 C.ar      11 UNK        -0.0830 
     12 C12       -76.8923   29.1285  -70.5359 C.ar      11 UNK        -0.1021 
     13 C13       -76.8003   30.4799  -70.8889 C.ar      11 UNK        -0.0753 
     14 C14       -77.7956   31.0435  -71.6944 C.ar      11 UNK        -0.0933 
     15 C15       -75.6500   31.3553  -70.3936 C.3       11 UNK         0.0166 
     16 S16       -74.0152   30.5474  -70.4612 S.3       11 UNK        -0.2615 
     17 C17       -73.9473   30.0125  -72.2043 C.3       11 UNK        -0.0865 
     18 CA        -72.5136   29.9605  -72.7896 C.3       10 UNK         0.0862 
     19 C         -71.6472   28.8574  -72.1224 C.2       10 UNK         0.5551 
     20 N         -71.7932   27.6020  -72.5290 N.am      10 UNK        -0.7319 
     21 O         -70.8303   29.1431  -71.2504 O.2       10 UNK        -0.5018 
     22 N         -72.5703   29.7768  -74.2443 N.am      10 UNK        -0.4509 
     23 C         -71.6845   30.2705  -75.1150 C.2       10 UNK         0.4899 
     24 O         -70.7754   31.0451  -74.8106 O.2       10 UNK        -0.4839 
     25 CA        -71.8575   29.8043  -76.5720 C.3       9 UNK         0.0222 
     26 CB        -70.8346   30.4346  -77.5416 C.3       9 UNK        -0.1966 
     27 N         -71.8651   28.3405  -76.6875 N.am      9 UNK        -0.4218 
     28 C         -70.8732   27.4882  -76.3770 C.2       9 UNK         0.5020 
     29 O         -69.7696   27.8469  -75.9636 O.2       9 UNK        -0.5274 
     30 CA        -71.1329   25.9754  -76.5467 C.3       8 UNK         0.0270 
     31 CB        -70.9961   25.2410  -75.2019 C.3       8 UNK        -0.1976 
     32 N         -72.4395   25.6503  -77.1215 N.am      8 UNK        -0.4313 
     33 C         -72.7785   25.7771  -78.4108 C.2       8 UNK         0.5041 
     34 O         -71.9942   26.1148  -79.2977 O.2       8 UNK        -0.5577 
     35 CA        -74.2603   25.5395  -78.7544 C.3       7 UNK         0.0284 
     36 CB        -74.5303   24.0479  -79.0073 C.3       7 UNK        -0.1958 
     37 N         -75.1706   26.0441  -77.7182 N.am      7 UNK        -0.4454 
     38 C         -75.2861   27.3361  -77.3748 C.2       7 UNK         0.5089 
     39 O         -74.6542   28.2462  -77.9098 O.2       7 UNK        -0.5125 
     40 CA        -76.2232   27.6653  -76.2050 C.3       6 UNK         0.0408 
     41 CB        -77.6748   27.7639  -76.6873 C.3       6 UNK        -0.1791 
     42 N         -76.1212   26.6816  -75.1272 N.am      6 UNK        -0.4762 
     43 C         -75.0766   26.5955  -74.2906 C.2       6 UNK         0.5007 
     44 O         -74.1057   27.3535  -74.3315 O.2       6 UNK        -0.5032 
     45 CA        -75.0771   25.4315  -73.2782 C.3       5 UNK         0.0783 
     46 C46       -75.7867   25.8086  -71.9520 C.3       11 UNK        -0.0857 
     47 S47       -77.6131   25.8025  -72.0433 S.3       11 UNK        -0.2512 
     48 C48       -78.0478   26.8714  -70.6341 C.3       11 UNK         0.0225 
     49 N         -75.5841   24.1820  -73.8547 N.am      5 UNK        -0.4615 
     50 C         -75.0496   23.5543  -74.9107 C.2       4 UNK         0.5053 
     51 O         -74.0229   23.9298  -75.4744 O.2       4 UNK        -0.5105 
     52 CA        -75.7935   22.3263  -75.4634 C.3       4 UNK         0.0263 
     53 CB        -75.1557   21.0346  -74.9287 C.3       4 UNK        -0.1981 
     54 N         -77.2359   22.3026  -75.1958 N.am      4 UNK        -0.4224 
     55 C         -78.1210   23.2303  -75.5865 C.2       3 UNK         0.4895 
     56 O         -77.8177   24.2776  -76.1659 O.2       3 UNK        -0.5091 
     57 CA        -79.5842   22.9369  -75.2378 C.3       3 UNK         0.0250 
     58 CB        -79.8446   23.1147  -73.7300 C.3       3 UNK        -0.1996 
     59 N         -80.4632   23.8291  -75.9870 N.am      3 UNK        -0.4254 
     60 C         -81.7296   23.5631  -76.3258 C.2       2 UNK         0.5004 
     61 O         -82.2886   22.4899  -76.0903 O.2       2 UNK        -0.5226 
     62 CA        -82.5157   24.7172  -76.9738 C.3       2 UNK         0.0269 
     63 CB        -83.9128   24.2898  -77.4619 C.3       2 UNK        -0.1926 
     64 N         -82.6647   25.7961  -75.9963 N.am      2 UNK        -0.4687 
     65 C         -81.7738   26.7748  -75.7997 C.2       1 UNK         0.5165 
     66 O         -80.7884   26.9404  -76.5191 O.2       1 UNK        -0.5079 
     67 H67       -82.5549   25.5512  -70.6605 H         1 UNK         0.0900 
     68 H68       -80.9706   25.3446  -71.4133 H         1 UNK         0.0900 
     69 H69       -82.2400   24.1531  -71.6915 H         1 UNK         0.0900 
     70 H70       -80.7446   26.8973  -73.0131 H         1 UNK         0.2959 
     71 H71       -83.0322   27.9444  -74.5330 H         1 UNK         0.1079 
     72 H72       -80.0677   28.7043  -74.5548 H         1 UNK         0.0837 
     73 H73       -81.2967   29.4849  -75.5183 H         1 UNK         0.0837 
     74 H74       -80.1684   31.9421  -72.5737 H         1 UNK         0.0685 
     75 H75       -79.5158   31.1747  -73.9984 H         1 UNK         0.0685 
     76 H76       -79.7642   28.3168  -72.1229 H         1 UNK         0.1434 
     77 H77       -76.1325   28.6843  -69.9076 H         1 UNK         0.1329 
     78 H78       -77.7333   32.0890  -71.9651 H         1 UNK         0.1335 
     79 H79       -75.5960   32.2793  -70.9718 H         1 UNK         0.0680 
     80 H80       -75.8529   31.6481  -69.3628 H         1 UNK         0.0680 
     81 H81       -74.5501   30.7046  -72.7947 H         1 UNK         0.1032 
     82 H82       -74.4407   29.0435  -72.2900 H         1 UNK         0.1032 
     83 H83       -72.0409   30.9222  -72.5793 H         1 UNK         0.0461 
     84 H84       -71.2300   26.8768  -72.1158 H         1 UNK         0.3453 
     85 H85       -72.4777   27.3872  -73.2432 H         1 UNK         0.3453 
     86 H86       -73.2313   29.0757  -74.5641 H         1 UNK         0.2984 
     87 H87       -72.8478   30.1388  -76.8843 H         1 UNK         0.0554 
     88 H88       -71.0081   30.1081  -78.5670 H         1 UNK         0.0847 
     89 H89       -69.8083   30.1784  -77.2771 H         1 UNK         0.0847 
     90 H90       -70.9088   31.5226  -77.5311 H         1 UNK         0.0847 
     91 H91       -72.7345   27.9483  -77.0298 H         1 UNK         0.3141 
     92 H92       -70.3604   25.5960  -77.2186 H         1 UNK         0.0743 
     93 H93       -71.7747   25.5411  -74.5011 H         1 UNK         0.0784 
     94 H94       -71.0674   24.1610  -75.3332 H         1 UNK         0.0784 
     95 H95       -70.0333   25.4464  -74.7321 H         1 UNK         0.0784 
     96 H96       -73.1321   25.2703  -76.4795 H         1 UNK         0.3213 
     97 H97       -74.4775   26.0855  -79.6751 H         1 UNK         0.0855 
     98 H98       -74.2704   23.4366  -78.1435 H         1 UNK         0.0814 
     99 H99       -73.9362   23.6858  -79.8474 H         1 UNK         0.0814 
    100 H100      -75.5777   23.8655  -79.2489 H         1 UNK         0.0814 
    101 H101      -75.7278   25.3654  -77.2167 H         1 UNK         0.3105 
    102 H102      -75.9352   28.6408  -75.8067 H         1 UNK         0.0547 
    103 H103      -77.7796   28.5213  -77.4650 H         1 UNK         0.0837 
    104 H104      -78.0341   26.8207  -77.1003 H         1 UNK         0.0837 
    105 H105      -78.3372   28.0446  -75.8715 H         1 UNK         0.0837 
    106 H106      -76.8524   25.9826  -75.0707 H         1 UNK         0.3020 
    107 H107      -74.0268   25.2518  -73.0372 H         1 UNK         0.1245 
    108 H108      -75.4401   26.7810  -71.5972 H         1 UNK         0.0781 
    109 H109      -75.4984   25.0971  -71.1768 H         1 UNK         0.0781 
    110 H110      -77.4097   26.6346  -69.7811 H         1 UNK         0.0836 
    111 H111      -79.0672   26.6444  -70.3192 H         1 UNK         0.0836 
    112 H112      -76.4378   23.8226  -73.4539 H         1 UNK         0.3022 
    113 H113      -75.6715   22.3401  -76.5477 H         1 UNK         0.0747 
    114 H114      -75.5929   20.1517  -75.3954 H         1 UNK         0.0793 
    115 H115      -74.0852   21.0116  -75.1390 H         1 UNK         0.0793 
    116 H116      -75.2775   20.9409  -73.8487 H         1 UNK         0.0793 
    117 H117      -77.5823   21.4859  -74.7125 H         1 UNK         0.3047 
    118 H118      -79.7913   21.9035  -75.5247 H         1 UNK         0.0822 
    119 H119      -79.1808   22.4925  -73.1288 H         1 UNK         0.0807 
    120 H120      -80.8658   22.8346  -73.4713 H         1 UNK         0.0807 
    121 H121      -79.6959   24.1490  -73.4203 H         1 UNK         0.0807 
    122 H122      -80.0501   24.7183  -76.2475 H         1 UNK         0.2946 
    123 H123      -81.9469   25.0649  -77.8397 H         1 UNK         0.1144 
    124 H124      -83.8408   23.4817  -78.1911 H         1 UNK         0.0793 
    125 H125      -84.4320   25.1170  -77.9462 H         1 UNK         0.0793 
    126 H126      -84.5390   23.9362  -76.6418 H         1 UNK         0.0793 
    127 H127      -83.3851   25.6745  -75.2925 H         1 UNK         0.2896 
@<TRIPOS>BOND
     1    1    2 1    
     2    1   67 1    
     3    1   68 1    
     4    1   69 1    
     5    2    3 2    
     6    2    4 am   BACKBONE|DICT|INTERRES
     7    4    5 1    
     8    4   70 1    
     9    5    6 1    
    10    5   65 1    
    11    5   71 1    
    12    6    7 1    
    13    6   72 1    
    14    6   73 1    
    15    7    8 1    
    16    8    9 1    
    17    8   74 1    
    18    8   75 1    
    19    9   10 ar   
    20    9   14 ar   
    21   10   11 ar   
    22   10   76 1    
    23   11   12 ar   
    24   11   48 1    
    25   12   13 ar   
    26   12   77 1    
    27   13   14 ar   
    28   13   15 1    
    29   14   78 1    
    30   15   16 1    
    31   15   79 1    
    32   15   80 1    
    33   16   17 1    
    34   17   18 1    
    35   17   81 1    
    36   17   82 1    
    37   18   19 1    
    38   18   22 1    
    39   18   83 1    
    40   19   20 am   BACKBONE|DICT|INTERRES
    41   19   21 2    
    42   20   84 1    
    43   20   85 1    
    44   22   23 am   BACKBONE|DICT|INTERRES
    45   22   86 1    
    46   23   24 2    
    47   23   25 1    
    48   25   26 1    
    49   25   27 1    
    50   25   87 1    
    51   26   88 1    
    52   26   89 1    
    53   26   90 1    
    54   27   28 am   BACKBONE|DICT|INTERRES
    55   27   91 1    
    56   28   29 2    
    57   28   30 1    
    58   30   31 1    
    59   30   32 1    
    60   30   92 1    
    61   31   93 1    
    62   31   94 1    
    63   31   95 1    
    64   32   33 am   BACKBONE|DICT|INTERRES
    65   32   96 1    
    66   33   34 2    
    67   33   35 1    
    68   35   36 1    
    69   35   37 1    
    70   35   97 1    
    71   36   98 1    
    72   36   99 1    
    73   36  100 1    
    74   37   38 am   BACKBONE|DICT|INTERRES
    75   37  101 1    
    76   38   39 2    
    77   38   40 1    
    78   40   41 1    
    79   40   42 1    
    80   40  102 1    
    81   41  103 1    
    82   41  104 1    
    83   41  105 1    
    84   42   43 am   BACKBONE|DICT|INTERRES
    85   42  106 1    
    86   43   44 2    
    87   43   45 1    
    88   45   46 1    
    89   45   49 1    
    90   45  107 1    
    91   46   47 1    
    92   46  108 1    
    93   46  109 1    
    94   47   48 1    
    95   48  110 1    
    96   48  111 1    
    97   49   50 am   BACKBONE|DICT|INTERRES
    98   49  112 1    
    99   50   51 2    
   100   50   52 1    
   101   52   53 1    
   102   52   54 1    
   103   52  113 1    
   104   53  114 1    
   105   53  115 1    
   106   53  116 1    
   107   54   55 am   BACKBONE|DICT|INTERRES
   108   54  117 1    
   109   55   56 2    
   110   55   57 1    
   111   57   58 1    
   112   57   59 1    
   113   57  118 1    
   114   58  119 1    
   115   58  120 1    
   116   58  121 1    
   117   59   60 am   BACKBONE|DICT|INTERRES
   118   59  122 1    
   119   60   61 2    
   120   60   62 1    
   121   62   63 1    
   122   62   64 1    
   123   62  123 1    
   124   63  124 1    
   125   63  125 1    
   126   63  126 1    
   127   64   65 am   BACKBONE|DICT|INTERRES
   128   64  127 1    
   129   65   66 2    
@<TRIPOS>SUBSTRUCTURE
     1 UNK         1 GROUP             0       ****    0 ROOT    
