@<TRIPOS>MOLECULE
3R135
127   129    1
SMALL
USER_CHARGES


@<TRIPOS>ATOM
      1 CA        -79.4701   30.1156  -77.5024 C.3       0 UNK        -0.1998 
      2 C         -80.4212   29.4518  -76.5167 C.2       0 UNK         0.4909 
      3 O         -81.6358   29.5301  -76.7043 O.2       0 UNK        -0.5240 
      4 N         -79.8650   28.8154  -75.4749 N.am      1 UNK        -0.4739 
      5 CA        -80.5475   28.0809  -74.3967 C.3       1 UNK         0.0864 
      6 C6        -81.5914   28.9359  -73.6129 C.3       11 UNK        -0.0881 
      7 S7        -80.9445   30.5220  -72.9731 S.3       11 UNK        -0.2682 
      8 C8        -80.7527   30.1823  -71.1936 C.3       11 UNK         0.0289 
      9 C9        -79.4578   29.4371  -70.9152 C.ar      11 UNK        -0.0687 
     10 C10       -79.4275   28.0397  -70.9366 C.ar      11 UNK        -0.0823 
     11 C11       -78.2241   27.3555  -70.7457 C.ar      11 UNK        -0.0830 
     12 C12       -77.0596   28.0766  -70.4702 C.ar      11 UNK        -0.1021 
     13 C13       -77.0748   29.4724  -70.4629 C.ar      11 UNK        -0.0753 
     14 C14       -78.2784   30.1497  -70.6758 C.ar      11 UNK        -0.0933 
     15 C15       -75.7744   30.2387  -70.2979 C.3       11 UNK         0.0166 
     16 S16       -75.0962   30.6579  -71.9338 S.3       11 UNK        -0.2615 
     17 C17       -73.3040   30.7522  -71.5931 C.3       11 UNK        -0.0865 
     18 CA        -72.4886   29.5684  -72.1941 C.3       10 UNK         0.0862 
     19 C         -72.7097   28.2136  -71.4678 C.2       10 UNK         0.5551 
     20 N         -72.4877   28.1625  -70.1613 N.am      10 UNK        -0.7319 
     21 O         -73.0618   27.2031  -72.0728 O.2       10 UNK        -0.5018 
     22 N         -72.6695   29.4331  -73.6442 N.am      10 UNK        -0.4509 
     23 C         -72.1438   30.2357  -74.5739 C.2       10 UNK         0.4899 
     24 O         -71.4406   31.2152  -74.3182 O.2       10 UNK        -0.4839 
     25 CA        -72.4579   29.8634  -76.0345 C.3       9 UNK         0.0222 
     26 CB        -71.7146   30.7376  -77.0671 C.3       9 UNK        -0.1966 
     27 N         -72.2451   28.4355  -76.2921 N.am      9 UNK        -0.4218 
     28 C         -71.0936   27.7488  -76.2270 C.2       9 UNK         0.5020 
     29 O         -69.9975   28.2531  -75.9791 O.2       9 UNK        -0.5274 
     30 CA        -71.1730   26.2294  -76.4695 C.3       8 UNK         0.0270 
     31 CB        -71.2019   25.4794  -75.1284 C.3       8 UNK        -0.1976 
     32 N         -72.3278   25.8230  -77.2766 N.am      8 UNK        -0.4313 
     33 C         -72.4820   26.0979  -78.5801 C.2       8 UNK         0.5041 
     34 O         -71.6394   26.6798  -79.2644 O.2       8 UNK        -0.5577 
     35 CA        -73.8099   25.6716  -79.2228 C.3       7 UNK         0.0284 
     36 CB        -73.7677   24.1931  -79.6437 C.3       7 UNK        -0.1958 
     37 N         -74.9417   25.8987  -78.3224 N.am      7 UNK        -0.4454 
     38 C         -75.5277   27.0882  -78.1262 C.2       7 UNK         0.5089 
     39 O         -75.2016   28.1203  -78.7118 O.2       7 UNK        -0.5125 
     40 CA        -76.6702   27.1351  -77.0967 C.3       6 UNK         0.0408 
     41 CB        -77.9884   26.7186  -77.7665 C.3       6 UNK        -0.1791 
     42 N         -76.4273   26.2819  -75.9309 N.am      6 UNK        -0.4762 
     43 C         -75.4490   26.4773  -75.0310 C.2       6 UNK         0.5007 
     44 O         -74.6903   27.4469  -75.0544 O.2       6 UNK        -0.5032 
     45 CA        -75.2319   25.3807  -73.9626 C.3       5 UNK         0.0783 
     46 C46       -75.9508   25.7267  -72.6373 C.3       11 UNK        -0.0857 
     47 S47       -77.7508   25.3867  -72.6161 S.3       11 UNK        -0.2512 
     48 C48       -78.1690   25.8441  -70.9010 C.3       11 UNK         0.0225 
     49 N         -75.5682   24.0346  -74.4280 N.am      5 UNK        -0.4615 
     50 C         -75.0943   23.4366  -75.5269 C.2       4 UNK         0.5053 
     51 O         -74.1678   23.8901  -76.1987 O.2       4 UNK        -0.5105 
     52 CA        -75.8197   22.1631  -76.0035 C.3       4 UNK         0.0263 
     53 CB        -74.9468   20.9256  -75.7436 C.3       4 UNK        -0.1981 
     54 N         -77.1523   21.9473  -75.4169 N.am      4 UNK        -0.4224 
     55 C         -78.1959   22.7910  -75.4687 C.2       3 UNK         0.4895 
     56 O         -78.1590   23.8879  -76.0316 O.2       3 UNK        -0.5091 
     57 CA        -79.4728   22.3468  -74.7390 C.3       3 UNK         0.0250 
     58 CB        -79.1868   21.6396  -73.3966 C.3       3 UNK        -0.1996 
     59 N         -80.3424   23.4983  -74.4936 N.am      3 UNK        -0.4254 
     60 C         -81.6787   23.4694  -74.5446 C.2       2 UNK         0.5004 
     61 O         -82.3222   22.4668  -74.8600 O.2       2 UNK        -0.5226 
     62 CA        -82.4506   24.7419  -74.1470 C.3       2 UNK         0.0269 
     63 CB        -83.2860   24.4848  -72.8800 C.3       2 UNK        -0.1926 
     64 N         -81.6210   25.9297  -73.9137 N.am      2 UNK        -0.4687 
     65 C         -81.1769   26.7482  -74.8772 C.2       1 UNK         0.5165 
     66 O         -81.2812   26.4822  -76.0763 O.2       1 UNK        -0.5079 
     67 H67       -79.6981   31.1780  -77.5846 H         1 UNK         0.0900 
     68 H68       -78.4284   30.0176  -77.1979 H         1 UNK         0.0900 
     69 H69       -79.5798   29.6667  -78.4891 H         1 UNK         0.0900 
     70 H70       -78.8580   28.8045  -75.4053 H         1 UNK         0.2959 
     71 H71       -79.7521   27.8020  -73.7046 H         1 UNK         0.1079 
     72 H72       -82.4463   29.1668  -74.2504 H         1 UNK         0.0837 
     73 H73       -82.0073   28.3717  -72.7775 H         1 UNK         0.0837 
     74 H74       -80.7521   31.1319  -70.6562 H         1 UNK         0.0685 
     75 H75       -81.6113   29.6244  -70.8170 H         1 UNK         0.0685 
     76 H76       -80.3328   27.4863  -71.1403 H         1 UNK         0.1434 
     77 H77       -76.1253   27.5540  -70.3171 H         1 UNK         0.1329 
     78 H78       -78.2898   31.2311  -70.6895 H         1 UNK         0.1335 
     79 H79       -75.9367   31.1516  -69.7230 H         1 UNK         0.0680 
     80 H80       -75.0586   29.6370  -69.7357 H         1 UNK         0.0680 
     81 H81       -72.9415   31.6890  -72.0184 H         1 UNK         0.1032 
     82 H82       -73.1289   30.8478  -70.5208 H         1 UNK         0.1032 
     83 H83       -71.4306   29.7884  -72.0386 H         1 UNK         0.0461 
     84 H84       -72.6166   27.2855  -69.6823 H         1 UNK         0.3453 
     85 H85       -72.1668   28.9684  -69.6491 H         1 UNK         0.3453 
     86 H86       -73.2330   28.6381  -73.9295 H         1 UNK         0.2984 
     87 H87       -73.5268   30.0362  -76.1694 H         1 UNK         0.0554 
     88 H88       -71.9770   31.7893  -76.9467 H         1 UNK         0.0847 
     89 H89       -71.9749   30.4532  -78.0867 H         1 UNK         0.0847 
     90 H90       -70.6320   30.6608  -76.9631 H         1 UNK         0.0847 
     91 H91       -73.0955   27.8975  -76.4098 H         1 UNK         0.3141 
     92 H92       -70.2700   25.9330  -77.0075 H         1 UNK         0.0743 
     93 H93       -72.0421   25.7952  -74.5109 H         1 UNK         0.0784 
     94 H94       -71.2734   24.4010  -75.2723 H         1 UNK         0.0784 
     95 H95       -70.2930   25.6722  -74.5568 H         1 UNK         0.0784 
     96 H96       -73.0400   25.2598  -76.8161 H         1 UNK         0.3213 
     97 H97       -73.9533   26.2734  -80.1233 H         1 UNK         0.0855 
     98 H98       -73.6150   23.5283  -78.7931 H         1 UNK         0.0814 
     99 H99       -72.9519   24.0136  -80.3453 H         1 UNK         0.0814 
    100 H100      -74.6916   23.8958  -80.1400 H         1 UNK         0.0814 
    101 H101      -75.2343   25.1170  -77.7520 H         1 UNK         0.3105 
    102 H102      -76.7676   28.1638  -76.7450 H         1 UNK         0.0547 
    103 H103      -78.2396   27.3889  -78.5892 H         1 UNK         0.0837 
    104 H104      -77.9333   25.7085  -78.1746 H         1 UNK         0.0837 
    105 H105      -78.8181   26.7389  -77.0628 H         1 UNK         0.0837 
    106 H106      -77.0094   25.4514  -75.8475 H         1 UNK         0.3020 
    107 H107      -74.1611   25.3749  -73.7556 H         1 UNK         0.1245 
    108 H108      -75.7771   26.7754  -72.3978 H         1 UNK         0.0781 
    109 H109      -75.4935   25.1593  -71.8253 H         1 UNK         0.0781 
    110 H110      -77.4425   25.4125  -70.2107 H         1 UNK         0.0836 
    111 H111      -79.1334   25.4045  -70.6424 H         1 UNK         0.0836 
    112 H112      -76.3411   23.5976  -73.9489 H         1 UNK         0.3022 
    113 H113      -75.9554   22.2655  -77.0820 H         1 UNK         0.0747 
    114 H114      -75.3909   20.0275  -76.1735 H         1 UNK         0.0793 
    115 H115      -73.9595   21.0417  -76.1936 H         1 UNK         0.0793 
    116 H116      -74.7998   20.7523  -74.6767 H         1 UNK         0.0793 
    117 H117      -77.2789   21.0740  -74.9257 H         1 UNK         0.3047 
    118 H118      -79.9748   21.6443  -75.4076 H         1 UNK         0.0822 
    119 H119      -78.6483   20.7021  -73.5369 H         1 UNK         0.0807 
    120 H120      -80.1134   21.3900  -72.8789 H         1 UNK         0.0807 
    121 H121      -78.5962   22.2675  -72.7281 H         1 UNK         0.0807 
    122 H122      -79.8739   24.3740  -74.3052 H         1 UNK         0.2946 
    123 H123      -83.1404   24.9554  -74.9673 H         1 UNK         0.1144 
    124 H124      -83.9010   25.3486  -72.6268 H         1 UNK         0.0793 
    125 H125      -82.6550   24.2558  -72.0202 H         1 UNK         0.0793 
    126 H126      -83.9634   23.6410  -73.0196 H         1 UNK         0.0793 
    127 H127      -81.4739   26.1808  -72.9475 H         1 UNK         0.2896 
@<TRIPOS>BOND
     1    1    2 1    
     2    1   67 1    
     3    1   68 1    
     4    1   69 1    
     5    2    3 2    
     6    2    4 am   BACKBONE|DICT|INTERRES
     7    4    5 1    
     8    4   70 1    
     9    5    6 1    
    10    5   65 1    
    11    5   71 1    
    12    6    7 1    
    13    6   72 1    
    14    6   73 1    
    15    7    8 1    
    16    8    9 1    
    17    8   74 1    
    18    8   75 1    
    19    9   10 ar   
    20    9   14 ar   
    21   10   11 ar   
    22   10   76 1    
    23   11   12 ar   
    24   11   48 1    
    25   12   13 ar   
    26   12   77 1    
    27   13   14 ar   
    28   13   15 1    
    29   14   78 1    
    30   15   16 1    
    31   15   79 1    
    32   15   80 1    
    33   16   17 1    
    34   17   18 1    
    35   17   81 1    
    36   17   82 1    
    37   18   19 1    
    38   18   22 1    
    39   18   83 1    
    40   19   20 am   BACKBONE|DICT|INTERRES
    41   19   21 2    
    42   20   84 1    
    43   20   85 1    
    44   22   23 am   BACKBONE|DICT|INTERRES
    45   22   86 1    
    46   23   24 2    
    47   23   25 1    
    48   25   26 1    
    49   25   27 1    
    50   25   87 1    
    51   26   88 1    
    52   26   89 1    
    53   26   90 1    
    54   27   28 am   BACKBONE|DICT|INTERRES
    55   27   91 1    
    56   28   29 2    
    57   28   30 1    
    58   30   31 1    
    59   30   32 1    
    60   30   92 1    
    61   31   93 1    
    62   31   94 1    
    63   31   95 1    
    64   32   33 am   BACKBONE|DICT|INTERRES
    65   32   96 1    
    66   33   34 2    
    67   33   35 1    
    68   35   36 1    
    69   35   37 1    
    70   35   97 1    
    71   36   98 1    
    72   36   99 1    
    73   36  100 1    
    74   37   38 am   BACKBONE|DICT|INTERRES
    75   37  101 1    
    76   38   39 2    
    77   38   40 1    
    78   40   41 1    
    79   40   42 1    
    80   40  102 1    
    81   41  103 1    
    82   41  104 1    
    83   41  105 1    
    84   42   43 am   BACKBONE|DICT|INTERRES
    85   42  106 1    
    86   43   44 2    
    87   43   45 1    
    88   45   46 1    
    89   45   49 1    
    90   45  107 1    
    91   46   47 1    
    92   46  108 1    
    93   46  109 1    
    94   47   48 1    
    95   48  110 1    
    96   48  111 1    
    97   49   50 am   BACKBONE|DICT|INTERRES
    98   49  112 1    
    99   50   51 2    
   100   50   52 1    
   101   52   53 1    
   102   52   54 1    
   103   52  113 1    
   104   53  114 1    
   105   53  115 1    
   106   53  116 1    
   107   54   55 am   BACKBONE|DICT|INTERRES
   108   54  117 1    
   109   55   56 2    
   110   55   57 1    
   111   57   58 1    
   112   57   59 1    
   113   57  118 1    
   114   58  119 1    
   115   58  120 1    
   116   58  121 1    
   117   59   60 am   BACKBONE|DICT|INTERRES
   118   59  122 1    
   119   60   61 2    
   120   60   62 1    
   121   62   63 1    
   122   62   64 1    
   123   62  123 1    
   124   63  124 1    
   125   63  125 1    
   126   63  126 1    
   127   64   65 am   BACKBONE|DICT|INTERRES
   128   64  127 1    
   129   65   66 2    
@<TRIPOS>SUBSTRUCTURE
     1 UNK         1 GROUP             0       ****    0 ROOT    
