@<TRIPOS>MOLECULE
3R135
127   129    1
SMALL
USER_CHARGES


@<TRIPOS>ATOM
      1 CA        -77.7950   26.3926  -71.3010 C.3       0 UNK        -0.1998 
      2 C         -79.2995   26.2561  -71.1330 C.2       0 UNK         0.4909 
      3 O         -79.7602   25.2787  -70.5425 O.2       0 UNK        -0.5240 
      4 N         -80.0708   27.2174  -71.6598 N.am      1 UNK        -0.4739 
      5 CA        -81.5419   27.1991  -71.6476 C.3       1 UNK         0.0864 
      6 C6        -82.1567   28.6146  -71.8109 C.3       11 UNK        -0.0881 
      7 S7        -81.9746   29.6123  -70.2880 S.3       11 UNK        -0.2682 
      8 C8        -80.9856   31.0439  -70.8289 C.3       11 UNK         0.0289 
      9 C9        -79.5637   30.6369  -71.1750 C.ar      11 UNK        -0.0687 
     10 C10       -79.1989   30.4536  -72.5086 C.ar      11 UNK        -0.0823 
     11 C11       -77.9264   29.9838  -72.8349 C.ar      11 UNK        -0.0830 
     12 C12       -77.0006   29.7347  -71.8174 C.ar      11 UNK        -0.1021 
     13 C13       -77.3377   29.9545  -70.4767 C.ar      11 UNK        -0.0753 
     14 C14       -78.6250   30.4063  -70.1645 C.ar      11 UNK        -0.0933 
     15 C15       -76.3507   29.6417  -69.3549 C.3       11 UNK         0.0166 
     16 S16       -74.8563   30.6872  -69.3901 S.3       11 UNK        -0.2615 
     17 C17       -73.7508   29.7385  -70.4937 C.3       11 UNK        -0.0865 
     18 CA        -73.3330   30.5515  -71.7608 C.3       10 UNK         0.0862 
     19 C         -71.9403   31.2386  -71.6347 C.2       10 UNK         0.5551 
     20 N         -71.6424   31.8374  -70.4894 N.am      10 UNK        -0.7319 
     21 O         -71.1430   31.2741  -72.5703 O.2       10 UNK        -0.5018 
     22 N         -73.5093   29.7973  -73.0117 N.am      10 UNK        -0.4509 
     23 C         -72.9506   28.6225  -73.3302 C.2       10 UNK         0.4899 
     24 O         -72.2439   27.9651  -72.5630 O.2       10 UNK        -0.4839 
     25 CA        -73.3304   28.0653  -74.7187 C.3       9 UNK         0.0222 
     26 CB        -73.3677   29.1517  -75.8180 C.3       9 UNK        -0.1966 
     27 N         -72.5181   26.9261  -75.1609 N.am      9 UNK        -0.4218 
     28 C         -71.1921   26.9030  -75.3686 C.2       9 UNK         0.5020 
     29 O         -70.4475   27.8747  -75.2273 O.2       9 UNK        -0.5274 
     30 CA        -70.5818   25.5640  -75.8213 C.3       8 UNK         0.0270 
     31 CB        -70.1480   24.7336  -74.6020 C.3       8 UNK        -0.1976 
     32 N         -71.4673   24.7561  -76.6657 N.am      8 UNK        -0.4313 
     33 C         -71.8469   25.0754  -77.9109 C.2       8 UNK         0.5041 
     34 O         -71.5071   26.1137  -78.4809 O.2       8 UNK        -0.5577 
     35 CA        -72.7354   24.0700  -78.6633 C.3       7 UNK         0.0284 
     36 CB        -72.9864   22.7480  -77.9067 C.3       7 UNK        -0.1958 
     37 N         -74.0185   24.7059  -78.9437 N.am      7 UNK        -0.4454 
     38 C         -74.4507   25.1060  -80.1473 C.2       7 UNK         0.5089 
     39 O         -73.8149   24.9458  -81.1903 O.2       7 UNK        -0.5125 
     40 CA        -75.8334   25.7863  -80.2172 C.3       6 UNK         0.0408 
     41 CB        -76.8183   24.9330  -81.0342 C.3       6 UNK        -0.1791 
     42 N         -76.4020   26.0348  -78.8889 N.am      6 UNK        -0.4762 
     43 C         -76.1792   27.1431  -78.1655 C.2       6 UNK         0.5007 
     44 O         -75.5644   28.1188  -78.5956 O.2       6 UNK        -0.5032 
     45 CA        -76.6925   27.1703  -76.7104 C.3       5 UNK         0.0783 
     46 C46       -77.9311   28.0845  -76.5731 C.3       11 UNK        -0.0857 
     47 S47       -78.4852   28.2198  -74.8427 S.3       11 UNK        -0.2512 
     48 C48       -77.5880   29.6977  -74.2867 C.3       11 UNK         0.0225 
     49 N         -76.9247   25.8324  -76.1561 N.am      5 UNK        -0.4615 
     50 C         -75.9671   24.9356  -75.8808 C.2       4 UNK         0.5053 
     51 O         -74.7644   25.1656  -76.0139 O.2       4 UNK        -0.5105 
     52 CA        -76.4151   23.5314  -75.4296 C.3       4 UNK         0.0263 
     53 CB        -76.3310   23.4176  -73.9002 C.3       4 UNK        -0.1981 
     54 N         -77.7670   23.1642  -75.8664 N.am      4 UNK        -0.4224 
     55 C         -78.1953   23.1365  -77.1376 C.2       3 UNK         0.4895 
     56 O         -77.4566   23.3211  -78.1046 O.2       3 UNK        -0.5091 
     57 CA        -79.7038   22.9332  -77.3811 C.3       3 UNK         0.0250 
     58 CB        -79.9776   21.4932  -77.8438 C.3       3 UNK        -0.1996 
     59 N         -80.5822   23.2487  -76.2440 N.am      3 UNK        -0.4254 
     60 C         -80.6425   24.4138  -75.5801 C.2       2 UNK         0.5004 
     61 O         -79.9022   25.3694  -75.8201 O.2       2 UNK        -0.5226 
     62 CA        -81.6751   24.5127  -74.4443 C.3       2 UNK         0.0269 
     63 CB        -81.7832   23.2009  -73.6300 C.3       2 UNK        -0.1926 
     64 N         -81.3270   25.6238  -73.5561 N.am      2 UNK        -0.4687 
     65 C         -82.1423   26.1839  -72.6510 C.2       1 UNK         0.5165 
     66 O         -83.3375   25.8967  -72.5596 O.2       1 UNK        -0.5079 
     67 H67       -77.3302   25.4104  -71.3781 H         1 UNK         0.0900 
     68 H68       -77.3687   26.8999  -70.4377 H         1 UNK         0.0900 
     69 H69       -77.5412   26.9542  -72.1991 H         1 UNK         0.0900 
     70 H70       -79.6399   28.0151  -72.1087 H         1 UNK         0.2959 
     71 H71       -81.8522   26.8271  -70.6681 H         1 UNK         0.1079 
     72 H72       -81.7293   29.1298  -72.6715 H         1 UNK         0.0837 
     73 H73       -83.2289   28.5514  -72.0075 H         1 UNK         0.0837 
     74 H74       -81.4738   31.5253  -71.6779 H         1 UNK         0.0685 
     75 H75       -80.9665   31.7837  -70.0272 H         1 UNK         0.0685 
     76 H76       -79.9196   30.6308  -73.2957 H         1 UNK         0.1434 
     77 H77       -76.0272   29.3466  -72.0709 H         1 UNK         0.1329 
     78 H78       -78.9128   30.5476  -69.1316 H         1 UNK         0.1335 
     79 H79       -76.8301   29.7878  -68.3857 H         1 UNK         0.0680 
     80 H80       -76.0723   28.5883  -69.3869 H         1 UNK         0.0680 
     81 H81       -74.2483   28.8101  -70.7732 H         1 UNK         0.1032 
     82 H82       -72.8797   29.4086  -69.9242 H         1 UNK         0.1032 
     83 H83       -74.0301   31.3818  -71.8812 H         1 UNK         0.0461 
     84 H84       -70.7533   32.3023  -70.3917 H         1 UNK         0.3453 
     85 H85       -72.3004   31.8390  -69.7247 H         1 UNK         0.3453 
     86 H86       -74.0370   30.2783  -73.7244 H         1 UNK         0.2984 
     87 H87       -74.3351   27.6649  -74.5940 H         1 UNK         0.0554 
     88 H88       -73.5334   28.7125  -76.8020 H         1 UNK         0.0847 
     89 H89       -72.4310   29.7089  -75.8630 H         1 UNK         0.0847 
     90 H90       -74.1714   29.8697  -75.6548 H         1 UNK         0.0847 
     91 H91       -73.0411   26.0738  -75.3347 H         1 UNK         0.3141 
     92 H92       -69.6895   25.7958  -76.4070 H         1 UNK         0.0743 
     93 H93       -71.0004   24.4447  -73.9856 H         1 UNK         0.0784 
     94 H94       -69.6256   23.8255  -74.9036 H         1 UNK         0.0784 
     95 H95       -69.4663   25.3017  -73.9672 H         1 UNK         0.0784 
     96 H96       -71.8044   23.8892  -76.2729 H         1 UNK         0.3213 
     97 H97       -72.2167   23.8279  -79.5933 H         1 UNK         0.0855 
     98 H98       -73.4972   22.9030  -76.9562 H         1 UNK         0.0814 
     99 H99       -72.0518   22.2220  -77.7069 H         1 UNK         0.0814 
    100 H100      -73.6054   22.0749  -78.5004 H         1 UNK         0.0814 
    101 H101      -74.5736   24.9430  -78.1310 H         1 UNK         0.3105 
    102 H102      -75.7034   26.7355  -80.7413 H         1 UNK         0.0547 
    103 H103      -76.4675   24.8090  -82.0595 H         1 UNK         0.0837 
    104 H104      -76.9382   23.9350  -80.6121 H         1 UNK         0.0837 
    105 H105      -77.8028   25.3981  -81.0841 H         1 UNK         0.0837 
    106 H106      -76.8987   25.2560  -78.4661 H         1 UNK         0.3020 
    107 H107      -75.8928   27.6254  -76.1304 H         1 UNK         0.1245 
    108 H108      -78.7617   27.6897  -77.1615 H         1 UNK         0.0781 
    109 H109      -77.7277   29.0840  -76.9629 H         1 UNK         0.0781 
    110 H110      -77.8625   30.5534  -74.9055 H         1 UNK         0.0836 
    111 H111      -76.5158   29.5445  -74.4143 H         1 UNK         0.0836 
    112 H112      -77.8986   25.5848  -76.0040 H         1 UNK         0.3022 
    113 H113      -75.7220   22.8124  -75.8698 H         1 UNK         0.0747 
    114 H114      -76.5362   22.4007  -73.5652 H         1 UNK         0.0793 
    115 H115      -75.3345   23.6801  -73.5414 H         1 UNK         0.0793 
    116 H116      -77.0414   24.0836  -73.4097 H         1 UNK         0.0793 
    117 H117      -78.4485   23.0039  -75.1398 H         1 UNK         0.3047 
    118 H118      -79.9805   23.6096  -78.1925 H         1 UNK         0.0822 
    119 H119      -81.0179   21.3614  -78.1421 H         1 UNK         0.0807 
    120 H120      -79.7569   20.7683  -77.0591 H         1 UNK         0.0807 
    121 H121      -79.3621   21.2357  -78.7074 H         1 UNK         0.0807 
    122 H122      -81.2198   22.5166  -75.9662 H         1 UNK         0.2946 
    123 H123      -82.6400   24.7287  -74.9087 H         1 UNK         0.1144 
    124 H124      -82.1344   22.3698  -74.2421 H         1 UNK         0.0793 
    125 H125      -82.4935   23.2943  -72.8085 H         1 UNK         0.0793 
    126 H126      -80.8218   22.9159  -73.2001 H         1 UNK         0.0793 
    127 H127      -80.3788   25.9665  -73.6486 H         1 UNK         0.2896 
@<TRIPOS>BOND
     1    1    2 1    
     2    1   67 1    
     3    1   68 1    
     4    1   69 1    
     5    2    3 2    
     6    2    4 am   BACKBONE|DICT|INTERRES
     7    4    5 1    
     8    4   70 1    
     9    5    6 1    
    10    5   65 1    
    11    5   71 1    
    12    6    7 1    
    13    6   72 1    
    14    6   73 1    
    15    7    8 1    
    16    8    9 1    
    17    8   74 1    
    18    8   75 1    
    19    9   10 ar   
    20    9   14 ar   
    21   10   11 ar   
    22   10   76 1    
    23   11   12 ar   
    24   11   48 1    
    25   12   13 ar   
    26   12   77 1    
    27   13   14 ar   
    28   13   15 1    
    29   14   78 1    
    30   15   16 1    
    31   15   79 1    
    32   15   80 1    
    33   16   17 1    
    34   17   18 1    
    35   17   81 1    
    36   17   82 1    
    37   18   19 1    
    38   18   22 1    
    39   18   83 1    
    40   19   20 am   BACKBONE|DICT|INTERRES
    41   19   21 2    
    42   20   84 1    
    43   20   85 1    
    44   22   23 am   BACKBONE|DICT|INTERRES
    45   22   86 1    
    46   23   24 2    
    47   23   25 1    
    48   25   26 1    
    49   25   27 1    
    50   25   87 1    
    51   26   88 1    
    52   26   89 1    
    53   26   90 1    
    54   27   28 am   BACKBONE|DICT|INTERRES
    55   27   91 1    
    56   28   29 2    
    57   28   30 1    
    58   30   31 1    
    59   30   32 1    
    60   30   92 1    
    61   31   93 1    
    62   31   94 1    
    63   31   95 1    
    64   32   33 am   BACKBONE|DICT|INTERRES
    65   32   96 1    
    66   33   34 2    
    67   33   35 1    
    68   35   36 1    
    69   35   37 1    
    70   35   97 1    
    71   36   98 1    
    72   36   99 1    
    73   36  100 1    
    74   37   38 am   BACKBONE|DICT|INTERRES
    75   37  101 1    
    76   38   39 2    
    77   38   40 1    
    78   40   41 1    
    79   40   42 1    
    80   40  102 1    
    81   41  103 1    
    82   41  104 1    
    83   41  105 1    
    84   42   43 am   BACKBONE|DICT|INTERRES
    85   42  106 1    
    86   43   44 2    
    87   43   45 1    
    88   45   46 1    
    89   45   49 1    
    90   45  107 1    
    91   46   47 1    
    92   46  108 1    
    93   46  109 1    
    94   47   48 1    
    95   48  110 1    
    96   48  111 1    
    97   49   50 am   BACKBONE|DICT|INTERRES
    98   49  112 1    
    99   50   51 2    
   100   50   52 1    
   101   52   53 1    
   102   52   54 1    
   103   52  113 1    
   104   53  114 1    
   105   53  115 1    
   106   53  116 1    
   107   54   55 am   BACKBONE|DICT|INTERRES
   108   54  117 1    
   109   55   56 2    
   110   55   57 1    
   111   57   58 1    
   112   57   59 1    
   113   57  118 1    
   114   58  119 1    
   115   58  120 1    
   116   58  121 1    
   117   59   60 am   BACKBONE|DICT|INTERRES
   118   59  122 1    
   119   60   61 2    
   120   60   62 1    
   121   62   63 1    
   122   62   64 1    
   123   62  123 1    
   124   63  124 1    
   125   63  125 1    
   126   63  126 1    
   127   64   65 am   BACKBONE|DICT|INTERRES
   128   64  127 1    
   129   65   66 2    
@<TRIPOS>SUBSTRUCTURE
     1 UNK         1 GROUP             0       ****    0 ROOT    
