@<TRIPOS>MOLECULE
3R135
127   129    1
SMALL
USER_CHARGES


@<TRIPOS>ATOM
      1 CA        -84.0882   26.1273  -70.8625 C.3       0 UNK        -0.1998 
      2 C         -82.9615   26.4631  -71.8274 C.2       0 UNK         0.4909 
      3 O         -83.1970   27.1213  -72.8421 O.2       0 UNK        -0.5240 
      4 N         -81.7361   26.0165  -71.5242 N.am      1 UNK        -0.4739 
      5 CA        -80.5367   26.2274  -72.3411 C.3       1 UNK         0.0864 
      6 C6        -79.2371   26.1683  -71.4952 C.3       11 UNK        -0.0881 
      7 S7        -79.2142   27.3885  -70.1365 S.3       11 UNK        -0.2682 
      8 C8        -77.5498   28.1263  -70.3127 C.3       11 UNK         0.0289 
      9 C9        -77.3857   29.1898  -71.4028 C.ar      11 UNK        -0.0687 
     10 C10       -78.3815   29.4893  -72.3414 C.ar      11 UNK        -0.0823 
     11 C11       -78.1742   30.4600  -73.3250 C.ar      11 UNK        -0.0830 
     12 C12       -76.9666   31.1619  -73.3555 C.ar      11 UNK        -0.1021 
     13 C13       -75.9674   30.8868  -72.4189 C.ar      11 UNK        -0.0753 
     14 C14       -76.1806   29.8972  -71.4551 C.ar      11 UNK        -0.0933 
     15 C15       -74.6554   31.6527  -72.4467 C.3       11 UNK         0.0166 
     16 S16       -73.4778   30.8484  -73.5709 S.3       11 UNK        -0.2615 
     17 C17       -71.8954   31.0390  -72.6694 C.3       11 UNK        -0.0865 
     18 CA        -71.5244   29.8229  -71.7705 C.3       10 UNK         0.0862 
     19 C         -72.1451   29.9182  -70.3452 C.2       10 UNK         0.5551 
     20 N         -72.8872   28.9253  -69.8700 N.am      10 UNK        -0.7319 
     21 O         -71.9363   30.9103  -69.6515 O.2       10 UNK        -0.5018 
     22 N         -71.7759   28.5590  -72.4742 N.am      10 UNK        -0.4509 
     23 C         -71.1905   27.3772  -72.2573 C.2       10 UNK         0.4899 
     24 O         -70.3045   27.1895  -71.4238 O.2       10 UNK        -0.4839 
     25 CA        -71.6921   26.1999  -73.1151 C.3       9 UNK         0.0222 
     26 CB        -72.5968   25.2779  -72.2819 C.3       9 UNK        -0.1966 
     27 N         -72.4314   26.6389  -74.3033 N.am      9 UNK        -0.4218 
     28 C         -71.8751   27.1558  -75.4064 C.2       9 UNK         0.5020 
     29 O         -70.6595   27.2499  -75.5918 O.2       9 UNK        -0.5274 
     30 CA        -72.8548   27.6777  -76.4720 C.3       8 UNK         0.0270 
     31 CB        -72.4207   29.0588  -76.9941 C.3       8 UNK        -0.1976 
     32 N         -73.0571   26.7836  -77.6156 N.am      8 UNK        -0.4313 
     33 C         -73.2480   25.4564  -77.6082 C.2       8 UNK         0.5041 
     34 O         -73.1731   24.7320  -76.6152 O.2       8 UNK        -0.5577 
     35 CA        -73.7071   24.8640  -78.9456 C.3       7 UNK         0.0284 
     36 CB        -73.5073   23.3391  -79.0275 C.3       7 UNK        -0.1958 
     37 N         -75.1287   25.1740  -79.0588 N.am      7 UNK        -0.4454 
     38 C         -75.6348   26.2001  -79.7520 C.2       7 UNK         0.5089 
     39 O         -74.9730   26.9035  -80.5164 O.2       7 UNK        -0.5125 
     40 CA        -77.1174   26.5298  -79.5097 C.3       6 UNK         0.0408 
     41 CB        -78.0299   25.4490  -80.1109 C.3       6 UNK        -0.1791 
     42 N         -77.4408   26.7149  -78.0912 N.am      6 UNK        -0.4762 
     43 C         -76.9242   27.6627  -77.2895 C.2       6 UNK         0.5007 
     44 O         -76.0879   28.4889  -77.6543 O.2       6 UNK        -0.5032 
     45 CA        -77.4190   27.6773  -75.8286 C.3       5 UNK         0.0783 
     46 C46       -78.8398   28.2854  -75.7033 C.3       11 UNK        -0.0857 
     47 S47       -78.8618   30.0890  -75.9918 S.3       11 UNK        -0.2512 
     48 C48       -79.2627   30.7578  -74.3458 C.3       11 UNK         0.0225 
     49 N         -77.3619   26.3151  -75.2967 N.am      5 UNK        -0.4615 
     50 C         -76.2787   25.7726  -74.7231 C.2       4 UNK         0.5053 
     51 O         -75.2851   26.4208  -74.3928 O.2       4 UNK        -0.5105 
     52 CA        -76.2849   24.2522  -74.4766 C.3       4 UNK         0.0263 
     53 CB        -76.3327   23.9319  -72.9737 C.3       4 UNK        -0.1981 
     54 N         -77.3796   23.5535  -75.1588 N.am      4 UNK        -0.4224 
     55 C         -77.3725   23.2337  -76.4618 C.2       3 UNK         0.4895 
     56 O         -76.4433   23.4899  -77.2235 O.2       3 UNK        -0.5091 
     57 CA        -78.6310   22.5610  -77.0375 C.3       3 UNK         0.0250 
     58 CB        -78.5440   21.0351  -76.8790 C.3       3 UNK        -0.1996 
     59 N         -79.8841   23.0429  -76.4530 N.am      3 UNK        -0.4254 
     60 C         -80.2942   24.3186  -76.4442 C.2       2 UNK         0.5004 
     61 O         -79.6507   25.2441  -76.9425 O.2       2 UNK        -0.5226 
     62 CA        -81.6073   24.6349  -75.7038 C.3       2 UNK         0.0269 
     63 CB        -82.4369   23.3865  -75.3262 C.3       2 UNK        -0.1926 
     64 N         -81.3774   25.4581  -74.5099 N.am      2 UNK        -0.4687 
     65 C         -80.5177   25.2190  -73.5077 C.2       1 UNK         0.5165 
     66 O         -79.7636   24.2442  -73.4668 O.2       1 UNK        -0.5079 
     67 H67       -84.8561   25.5451  -71.3710 H         1 UNK         0.0900 
     68 H68       -84.5458   27.0426  -70.4880 H         1 UNK         0.0900 
     69 H69       -83.7347   25.5507  -70.0079 H         1 UNK         0.0900 
     70 H70       -81.5979   25.4746  -70.6830 H         1 UNK         0.2959 
     71 H71       -80.5971   27.2207  -72.7874 H         1 UNK         0.1079 
     72 H72       -79.1042   25.1775  -71.0564 H         1 UNK         0.0837 
     73 H73       -78.3708   26.3385  -72.1375 H         1 UNK         0.0837 
     74 H74       -77.2924   28.5784  -69.3536 H         1 UNK         0.0685 
     75 H75       -76.8227   27.3298  -70.4781 H         1 UNK         0.0685 
     76 H76       -79.3283   28.9766  -72.3153 H         1 UNK         0.1434 
     77 H77       -76.8022   31.9168  -74.1126 H         1 UNK         0.1329 
     78 H78       -75.4033   29.6803  -70.7358 H         1 UNK         0.1335 
     79 H79       -74.2433   31.7139  -71.4388 H         1 UNK         0.0680 
     80 H80       -74.8202   32.6806  -72.7730 H         1 UNK         0.0680 
     81 H81       -71.1188   31.1584  -73.4264 H         1 UNK         0.1032 
     82 H82       -71.8882   31.9773  -72.1112 H         1 UNK         0.1032 
     83 H83       -70.4472   29.8771  -71.6016 H         1 UNK         0.0461 
     84 H84       -73.0434   28.0992  -70.4229 H         1 UNK         0.3453 
     85 H85       -73.2663   28.9941  -68.9391 H         1 UNK         0.3453 
     86 H86       -72.5079   28.6051  -73.1684 H         1 UNK         0.2984 
     87 H87       -70.8206   25.6276  -73.4392 H         1 UNK         0.0554 
     88 H88       -73.4888   25.7985  -71.9312 H         1 UNK         0.0847 
     89 H89       -72.0706   24.9008  -71.4039 H         1 UNK         0.0847 
     90 H90       -72.9202   24.4131  -72.8618 H         1 UNK         0.0847 
     91 H91       -73.4474   26.5510  -74.2753 H         1 UNK         0.3141 
     92 H92       -73.8296   27.8106  -76.0015 H         1 UNK         0.0743 
     93 H93       -72.2387   29.7499  -76.1701 H         1 UNK         0.0784 
     94 H94       -71.5012   28.9997  -77.5779 H         1 UNK         0.0784 
     95 H95       -73.1922   29.5049  -77.6224 H         1 UNK         0.0784 
     96 H96       -73.1883   27.2517  -78.5015 H         1 UNK         0.3213 
     97 H97       -73.1344   25.3254  -79.7533 H         1 UNK         0.0855 
     98 H98       -74.0501   22.8118  -78.2422 H         1 UNK         0.0814 
     99 H99       -72.4529   23.0807  -78.9240 H         1 UNK         0.0814 
    100 H100      -73.8469   22.9479  -79.9864 H         1 UNK         0.0814 
    101 H101      -75.7313   24.6645  -78.4124 H         1 UNK         0.3105 
    102 H102      -77.3343   27.4721  -80.0170 H         1 UNK         0.0547 
    103 H103      -77.8360   25.3242  -81.1770 H         1 UNK         0.0837 
    104 H104      -77.8772   24.4796  -79.6367 H         1 UNK         0.0837 
    105 H105      -79.0822   25.7118  -80.0013 H         1 UNK         0.0837 
    106 H106      -78.1591   26.1037  -77.7097 H         1 UNK         0.3020 
    107 H107      -76.7348   28.3075  -75.2534 H         1 UNK         0.1245 
    108 H108      -79.2424   28.0824  -74.7116 H         1 UNK         0.0781 
    109 H109      -79.5360   27.8179  -76.4013 H         1 UNK         0.0781 
    110 H110      -80.2258   30.3615  -74.0200 H         1 UNK         0.0836 
    111 H111      -79.3928   31.8380  -74.4274 H         1 UNK         0.0836 
    112 H112      -78.1235   25.7045  -75.5652 H         1 UNK         0.3022 
    113 H113      -75.3369   23.8726  -74.8654 H         1 UNK         0.0747 
    114 H114      -76.1957   22.8655  -72.7949 H         1 UNK         0.0793 
    115 H115      -75.5423   24.4532  -72.4334 H         1 UNK         0.0793 
    116 H116      -77.2800   24.2245  -72.5247 H         1 UNK         0.0793 
    117 H117      -78.2176   23.3830  -74.6120 H         1 UNK         0.3047 
    118 H118      -78.6638   22.7888  -78.1044 H         1 UNK         0.0822 
    119 H119      -79.3782   20.5357  -77.3722 H         1 UNK         0.0807 
    120 H120      -78.5452   20.7364  -75.8298 H         1 UNK         0.0807 
    121 H121      -77.6274   20.6483  -77.3269 H         1 UNK         0.0807 
    122 H122      -80.4613   22.3565  -75.9892 H         1 UNK         0.2946 
    123 H123      -82.2027   25.2353  -76.3938 H         1 UNK         0.1144 
    124 H124      -83.3952   23.6755  -74.8942 H         1 UNK         0.0793 
    125 H125      -81.9291   22.7561  -74.5951 H         1 UNK         0.0793 
    126 H126      -82.6578   22.7757  -76.2029 H         1 UNK         0.0793 
    127 H127      -81.9876   26.2618  -74.4075 H         1 UNK         0.2896 
@<TRIPOS>BOND
     1    1    2 1    
     2    1   67 1    
     3    1   68 1    
     4    1   69 1    
     5    2    3 2    
     6    2    4 am   BACKBONE|DICT|INTERRES
     7    4    5 1    
     8    4   70 1    
     9    5    6 1    
    10    5   65 1    
    11    5   71 1    
    12    6    7 1    
    13    6   72 1    
    14    6   73 1    
    15    7    8 1    
    16    8    9 1    
    17    8   74 1    
    18    8   75 1    
    19    9   10 ar   
    20    9   14 ar   
    21   10   11 ar   
    22   10   76 1    
    23   11   12 ar   
    24   11   48 1    
    25   12   13 ar   
    26   12   77 1    
    27   13   14 ar   
    28   13   15 1    
    29   14   78 1    
    30   15   16 1    
    31   15   79 1    
    32   15   80 1    
    33   16   17 1    
    34   17   18 1    
    35   17   81 1    
    36   17   82 1    
    37   18   19 1    
    38   18   22 1    
    39   18   83 1    
    40   19   20 am   BACKBONE|DICT|INTERRES
    41   19   21 2    
    42   20   84 1    
    43   20   85 1    
    44   22   23 am   BACKBONE|DICT|INTERRES
    45   22   86 1    
    46   23   24 2    
    47   23   25 1    
    48   25   26 1    
    49   25   27 1    
    50   25   87 1    
    51   26   88 1    
    52   26   89 1    
    53   26   90 1    
    54   27   28 am   BACKBONE|DICT|INTERRES
    55   27   91 1    
    56   28   29 2    
    57   28   30 1    
    58   30   31 1    
    59   30   32 1    
    60   30   92 1    
    61   31   93 1    
    62   31   94 1    
    63   31   95 1    
    64   32   33 am   BACKBONE|DICT|INTERRES
    65   32   96 1    
    66   33   34 2    
    67   33   35 1    
    68   35   36 1    
    69   35   37 1    
    70   35   97 1    
    71   36   98 1    
    72   36   99 1    
    73   36  100 1    
    74   37   38 am   BACKBONE|DICT|INTERRES
    75   37  101 1    
    76   38   39 2    
    77   38   40 1    
    78   40   41 1    
    79   40   42 1    
    80   40  102 1    
    81   41  103 1    
    82   41  104 1    
    83   41  105 1    
    84   42   43 am   BACKBONE|DICT|INTERRES
    85   42  106 1    
    86   43   44 2    
    87   43   45 1    
    88   45   46 1    
    89   45   49 1    
    90   45  107 1    
    91   46   47 1    
    92   46  108 1    
    93   46  109 1    
    94   47   48 1    
    95   48  110 1    
    96   48  111 1    
    97   49   50 am   BACKBONE|DICT|INTERRES
    98   49  112 1    
    99   50   51 2    
   100   50   52 1    
   101   52   53 1    
   102   52   54 1    
   103   52  113 1    
   104   53  114 1    
   105   53  115 1    
   106   53  116 1    
   107   54   55 am   BACKBONE|DICT|INTERRES
   108   54  117 1    
   109   55   56 2    
   110   55   57 1    
   111   57   58 1    
   112   57   59 1    
   113   57  118 1    
   114   58  119 1    
   115   58  120 1    
   116   58  121 1    
   117   59   60 am   BACKBONE|DICT|INTERRES
   118   59  122 1    
   119   60   61 2    
   120   60   62 1    
   121   62   63 1    
   122   62   64 1    
   123   62  123 1    
   124   63  124 1    
   125   63  125 1    
   126   63  126 1    
   127   64   65 am   BACKBONE|DICT|INTERRES
   128   64  127 1    
   129   65   66 2    
@<TRIPOS>SUBSTRUCTURE
     1 UNK         1 GROUP             0       ****    0 ROOT    
