@<TRIPOS>MOLECULE
3R135
127   129    1
SMALL
USER_CHARGES


@<TRIPOS>ATOM
      1 CA        -85.0934   27.1234  -72.2182 C.3       0 UNK        -0.1998 
      2 C         -83.7242   27.2081  -72.8749 C.2       0 UNK         0.4909 
      3 O         -82.8253   26.4488  -72.5123 O.2       0 UNK        -0.5240 
      4 N         -83.5633   28.1163  -73.8486 N.am      1 UNK        -0.4739 
      5 CA        -82.3459   28.4029  -74.6278 C.3       1 UNK         0.0864 
      6 C6        -81.1219   28.7558  -73.7412 C.3       11 UNK        -0.0881 
      7 S7        -80.0275   29.9974  -74.5057 S.3       11 UNK        -0.2682 
      8 C8        -79.1831   30.6753  -73.0410 C.3       11 UNK         0.0289 
      9 C9        -78.1846   29.6914  -72.4448 C.ar      11 UNK        -0.0687 
     10 C10       -78.6088   28.7227  -71.5297 C.ar      11 UNK        -0.0823 
     11 C11       -77.6988   27.8256  -70.9633 C.ar      11 UNK        -0.0830 
     12 C12       -76.3445   27.9252  -71.2992 C.ar      11 UNK        -0.1021 
     13 C13       -75.9059   28.8900  -72.2105 C.ar      11 UNK        -0.0753 
     14 C14       -76.8307   29.7659  -72.7866 C.ar      11 UNK        -0.0933 
     15 C15       -74.4321   28.9820  -72.5688 C.3       11 UNK         0.0166 
     16 S16       -73.5744   30.1764  -71.4972 S.3       11 UNK        -0.2615 
     17 C17       -71.8239   29.7266  -71.7578 C.3       11 UNK        -0.0865 
     18 CA        -71.0620   30.7179  -72.6768 C.3       10 UNK         0.0862 
     19 C         -69.5280   30.4487  -72.6137 C.2       10 UNK         0.5551 
     20 N         -68.8763   30.0279  -73.6913 N.am      10 UNK        -0.7319 
     21 O         -68.9185   30.6289  -71.5623 O.2       10 UNK        -0.5018 
     22 N         -71.6303   30.7327  -74.0342 N.am      10 UNK        -0.4509 
     23 C         -71.4027   31.6555  -74.9747 C.2       10 UNK         0.4899 
     24 O         -70.7155   32.6617  -74.7928 O.2       10 UNK        -0.4839 
     25 CA        -72.0327   31.3823  -76.3580 C.3       9 UNK         0.0222 
     26 CB        -71.7463   32.5069  -77.3712 C.3       9 UNK        -0.1966 
     27 N         -71.5948   30.1018  -76.9306 N.am      9 UNK        -0.4218 
     28 C         -72.0222   28.8954  -76.5382 C.2       9 UNK         0.5020 
     29 O         -72.8436   28.7256  -75.6304 O.2       9 UNK        -0.5274 
     30 CA        -71.4132   27.6742  -77.2380 C.3       8 UNK         0.0270 
     31 CB        -69.9612   27.4315  -76.7883 C.3       8 UNK        -0.1976 
     32 N         -72.2409   26.5374  -76.8650 N.am      8 UNK        -0.4313 
     33 C         -72.4908   25.4354  -77.5747 C.2       8 UNK         0.5041 
     34 O         -71.9254   25.1524  -78.6319 O.2       8 UNK        -0.5577 
     35 CA        -73.5747   24.4977  -77.0092 C.3       7 UNK         0.0284 
     36 CB        -72.9371   23.3160  -76.2615 C.3       7 UNK        -0.1958 
     37 N         -74.5105   25.1838  -76.1103 N.am      7 UNK        -0.4454 
     38 C         -75.4409   26.0659  -76.4973 C.2       7 UNK         0.5089 
     39 O         -75.6406   26.3720  -77.6740 O.2       7 UNK        -0.5125 
     40 CA        -76.2821   26.7052  -75.3765 C.3       6 UNK         0.0408 
     41 CB        -77.3641   27.6552  -75.9155 C.3       6 UNK        -0.1791 
     42 N         -76.9244   25.6990  -74.5309 N.am      6 UNK        -0.4762 
     43 C         -76.3382   25.0356  -73.5248 C.2       6 UNK         0.5007 
     44 O         -75.1512   25.1725  -73.2238 O.2       6 UNK        -0.5032 
     45 CA        -77.2018   24.0004  -72.7845 C.3       5 UNK         0.0783 
     46 C46       -78.2530   24.6605  -71.8550 C.3       11 UNK        -0.0857 
     47 S47       -77.5284   25.1095  -70.2417 S.3       11 UNK        -0.2512 
     48 C48       -78.1893   26.7865  -69.9592 C.3       11 UNK         0.0225 
     49 N         -77.8211   23.1078  -73.7652 N.am      5 UNK        -0.4615 
     50 C         -77.3728   21.8801  -74.0652 C.2       4 UNK         0.5053 
     51 O         -76.4509   21.3212  -73.4707 O.2       4 UNK        -0.5105 
     52 CA        -78.0581   21.1443  -75.2327 C.3       4 UNK         0.0263 
     53 CB        -79.2046   20.2621  -74.7132 C.3       4 UNK        -0.1981 
     54 N         -78.5759   22.0550  -76.2548 N.am      4 UNK        -0.4224 
     55 C         -77.8191   22.8360  -77.0392 C.2       3 UNK         0.4895 
     56 O         -76.5928   22.7576  -77.0945 O.2       3 UNK        -0.5091 
     57 CA        -78.5428   23.8984  -77.8897 C.3       3 UNK         0.0250 
     58 CB        -78.5316   23.4975  -79.3737 C.3       3 UNK        -0.1996 
     59 N         -79.9253   24.1799  -77.4782 N.am      3 UNK        -0.4254 
     60 C         -80.2984   24.6925  -76.2972 C.2       2 UNK         0.5004 
     61 O         -79.5153   24.9443  -75.3768 O.2       2 UNK        -0.5226 
     62 CA        -81.8079   24.8643  -76.0801 C.3       2 UNK         0.0269 
     63 CB        -82.3878   23.6197  -75.3885 C.3       2 UNK        -0.1926 
     64 N         -82.0985   26.0368  -75.2590 N.am      2 UNK        -0.4687 
     65 C         -82.0092   27.3084  -75.6657 C.2       1 UNK         0.5165 
     66 O         -81.7171   27.6310  -76.8184 O.2       1 UNK        -0.5079 
     67 H67       -85.0074   27.3116  -71.1484 H         1 UNK         0.0900 
     68 H68       -85.7923   27.8484  -72.6349 H         1 UNK         0.0900 
     69 H69       -85.5142   26.1279  -72.3564 H         1 UNK         0.0900 
     70 H70       -84.3621   28.6785  -74.1099 H         1 UNK         0.2959 
     71 H71       -82.6073   29.2913  -75.2057 H         1 UNK         0.1079 
     72 H72       -80.5425   27.8663  -73.4843 H         1 UNK         0.0837 
     73 H73       -81.4680   29.1709  -72.7936 H         1 UNK         0.0837 
     74 H74       -78.6703   31.5935  -73.3310 H         1 UNK         0.0685 
     75 H75       -79.9197   30.9677  -72.2911 H         1 UNK         0.0685 
     76 H76       -79.6527   28.6704  -71.2539 H         1 UNK         0.1434 
     77 H77       -75.6288   27.2477  -70.8538 H         1 UNK         0.1329 
     78 H78       -76.4931   30.5137  -73.4910 H         1 UNK         0.1335 
     79 H79       -74.3247   29.2919  -73.6078 H         1 UNK         0.0680 
     80 H80       -73.9700   27.9968  -72.4858 H         1 UNK         0.0680 
     81 H81       -71.7494   28.7099  -72.1477 H         1 UNK         0.1032 
     82 H82       -71.3621   29.6962  -70.7687 H         1 UNK         0.1032 
     83 H83       -71.2004   31.7199  -72.2660 H         1 UNK         0.0461 
     84 H84       -67.8839   29.8615  -73.6349 H         1 UNK         0.3453 
     85 H85       -69.3644   29.8936  -74.5607 H         1 UNK         0.3453 
     86 H86       -72.1882   29.9274  -74.3028 H         1 UNK         0.2984 
     87 H87       -73.1143   31.3421  -76.2113 H         1 UNK         0.0554 
     88 H88       -72.0990   33.4692  -76.9973 H         1 UNK         0.0847 
     89 H89       -72.2535   32.3267  -78.3192 H         1 UNK         0.0847 
     90 H90       -70.6793   32.6077  -77.5742 H         1 UNK         0.0847 
     91 H91       -70.8972   30.1530  -77.6597 H         1 UNK         0.3141 
     92 H92       -71.4580   27.8253  -78.3186 H         1 UNK         0.0743 
     93 H93       -69.8892   27.3096  -75.7065 H         1 UNK         0.0784 
     94 H94       -69.5495   26.5348  -77.2520 H         1 UNK         0.0784 
     95 H95       -69.3152   28.2640  -77.0690 H         1 UNK         0.0784 
     96 H96       -72.8050   26.7205  -76.0427 H         1 UNK         0.3213 
     97 H97       -74.1435   24.1034  -77.8543 H         1 UNK         0.0855 
     98 H98       -72.3685   23.6467  -75.3914 H         1 UNK         0.0814 
     99 H99       -72.2533   22.7674  -76.9106 H         1 UNK         0.0814 
    100 H100      -73.6957   22.6104  -75.9210 H         1 UNK         0.0814 
    101 H101      -74.4402   24.9863  -75.1171 H         1 UNK         0.3105 
    102 H102      -75.6009   27.2981  -74.7634 H         1 UNK         0.0547 
    103 H103      -78.0767   27.1386  -76.5594 H         1 UNK         0.0837 
    104 H104      -76.9225   28.4670  -76.4944 H         1 UNK         0.0837 
    105 H105      -77.9218   28.1073  -75.0972 H         1 UNK         0.0837 
    106 H106      -77.8934   25.4841  -74.7606 H         1 UNK         0.3020 
    107 H107      -76.5228   23.4163  -72.1584 H         1 UNK         0.1245 
    108 H108      -79.0611   23.9571  -71.6480 H         1 UNK         0.0781 
    109 H109      -78.7282   25.5240  -72.3256 H         1 UNK         0.0781 
    110 H110      -77.8994   27.1104  -68.9589 H         1 UNK         0.0836 
    111 H111      -79.2792   26.7310  -69.9594 H         1 UNK         0.0836 
    112 H112      -78.5562   23.5159  -74.3327 H         1 UNK         0.3022 
    113 H113      -77.3114   20.4997  -75.7017 H         1 UNK         0.0747 
    114 H114      -79.6531   19.6787  -75.5177 H         1 UNK         0.0793 
    115 H115      -78.8432   19.5547  -73.9653 H         1 UNK         0.0793 
    116 H116      -79.9927   20.8548  -74.2468 H         1 UNK         0.0793 
    117 H117      -79.5773   22.1687  -76.2986 H         1 UNK         0.3047 
    118 H118      -77.9770   24.8258  -77.7839 H         1 UNK         0.0822 
    119 H119      -78.9506   24.2842  -80.0014 H         1 UNK         0.0807 
    120 H120      -79.1014   22.5843  -79.5502 H         1 UNK         0.0807 
    121 H121      -77.5131   23.3188  -79.7218 H         1 UNK         0.0807 
    122 H122      -80.6395   23.9784  -78.1639 H         1 UNK         0.2946 
    123 H123      -82.2966   24.9935  -77.0486 H         1 UNK         0.1144 
    124 H124      -82.2251   22.7230  -75.9878 H         1 UNK         0.0793 
    125 H125      -83.4634   23.7155  -75.2387 H         1 UNK         0.0793 
    126 H126      -81.9291   23.4500  -74.4130 H         1 UNK         0.0793 
    127 H127      -82.3070   25.8802  -74.2769 H         1 UNK         0.2896 
@<TRIPOS>BOND
     1    1    2 1    
     2    1   67 1    
     3    1   68 1    
     4    1   69 1    
     5    2    3 2    
     6    2    4 am   BACKBONE|DICT|INTERRES
     7    4    5 1    
     8    4   70 1    
     9    5    6 1    
    10    5   65 1    
    11    5   71 1    
    12    6    7 1    
    13    6   72 1    
    14    6   73 1    
    15    7    8 1    
    16    8    9 1    
    17    8   74 1    
    18    8   75 1    
    19    9   10 ar   
    20    9   14 ar   
    21   10   11 ar   
    22   10   76 1    
    23   11   12 ar   
    24   11   48 1    
    25   12   13 ar   
    26   12   77 1    
    27   13   14 ar   
    28   13   15 1    
    29   14   78 1    
    30   15   16 1    
    31   15   79 1    
    32   15   80 1    
    33   16   17 1    
    34   17   18 1    
    35   17   81 1    
    36   17   82 1    
    37   18   19 1    
    38   18   22 1    
    39   18   83 1    
    40   19   20 am   BACKBONE|DICT|INTERRES
    41   19   21 2    
    42   20   84 1    
    43   20   85 1    
    44   22   23 am   BACKBONE|DICT|INTERRES
    45   22   86 1    
    46   23   24 2    
    47   23   25 1    
    48   25   26 1    
    49   25   27 1    
    50   25   87 1    
    51   26   88 1    
    52   26   89 1    
    53   26   90 1    
    54   27   28 am   BACKBONE|DICT|INTERRES
    55   27   91 1    
    56   28   29 2    
    57   28   30 1    
    58   30   31 1    
    59   30   32 1    
    60   30   92 1    
    61   31   93 1    
    62   31   94 1    
    63   31   95 1    
    64   32   33 am   BACKBONE|DICT|INTERRES
    65   32   96 1    
    66   33   34 2    
    67   33   35 1    
    68   35   36 1    
    69   35   37 1    
    70   35   97 1    
    71   36   98 1    
    72   36   99 1    
    73   36  100 1    
    74   37   38 am   BACKBONE|DICT|INTERRES
    75   37  101 1    
    76   38   39 2    
    77   38   40 1    
    78   40   41 1    
    79   40   42 1    
    80   40  102 1    
    81   41  103 1    
    82   41  104 1    
    83   41  105 1    
    84   42   43 am   BACKBONE|DICT|INTERRES
    85   42  106 1    
    86   43   44 2    
    87   43   45 1    
    88   45   46 1    
    89   45   49 1    
    90   45  107 1    
    91   46   47 1    
    92   46  108 1    
    93   46  109 1    
    94   47   48 1    
    95   48  110 1    
    96   48  111 1    
    97   49   50 am   BACKBONE|DICT|INTERRES
    98   49  112 1    
    99   50   51 2    
   100   50   52 1    
   101   52   53 1    
   102   52   54 1    
   103   52  113 1    
   104   53  114 1    
   105   53  115 1    
   106   53  116 1    
   107   54   55 am   BACKBONE|DICT|INTERRES
   108   54  117 1    
   109   55   56 2    
   110   55   57 1    
   111   57   58 1    
   112   57   59 1    
   113   57  118 1    
   114   58  119 1    
   115   58  120 1    
   116   58  121 1    
   117   59   60 am   BACKBONE|DICT|INTERRES
   118   59  122 1    
   119   60   61 2    
   120   60   62 1    
   121   62   63 1    
   122   62   64 1    
   123   62  123 1    
   124   63  124 1    
   125   63  125 1    
   126   63  126 1    
   127   64   65 am   BACKBONE|DICT|INTERRES
   128   64  127 1    
   129   65   66 2    
@<TRIPOS>SUBSTRUCTURE
     1 UNK         1 GROUP             0       ****    0 ROOT    
