@<TRIPOS>MOLECULE
3R135
127   129    1
SMALL
USER_CHARGES


@<TRIPOS>ATOM
      1 CA        -80.2444   22.4710  -73.9205 C.3       0 UNK        -0.1998 
      2 C         -81.2601   23.5487  -73.5695 C.2       0 UNK         0.4909 
      3 O         -82.3964   23.2314  -73.2174 O.2       0 UNK        -0.5240 
      4 N         -80.8565   24.8186  -73.6788 N.am      1 UNK        -0.4739 
      5 CA        -81.6927   26.0040  -73.4498 C.3       1 UNK         0.0864 
      6 C6        -80.9543   27.0583  -72.5836 C.3       11 UNK        -0.0881 
      7 S7        -80.6458   26.4643  -70.8889 S.3       11 UNK        -0.2682 
      8 C8        -79.9689   27.9659  -70.1094 C.3       11 UNK         0.0289 
      9 C9        -78.5498   28.2487  -70.5797 C.ar      11 UNK        -0.0687 
     10 C10       -77.5020   27.4365  -70.1423 C.ar      11 UNK        -0.0823 
     11 C11       -76.2001   27.6407  -70.6064 C.ar      11 UNK        -0.0830 
     12 C12       -75.9449   28.6991  -71.4817 C.ar      11 UNK        -0.1021 
     13 C13       -76.9762   29.5557  -71.8915 C.ar      11 UNK        -0.0753 
     14 C14       -78.2803   29.3107  -71.4479 C.ar      11 UNK        -0.0933 
     15 C15       -76.7227   30.7190  -72.8481 C.3       11 UNK         0.0166 
     16 S16       -75.0822   31.4964  -72.6631 S.3       11 UNK        -0.2615 
     17 C17       -74.7135   31.9232  -74.3998 C.3       11 UNK        -0.0865 
     18 CA        -74.1852   30.7214  -75.2351 C.3       10 UNK         0.0862 
     19 C         -73.9343   31.1141  -76.7220 C.2       10 UNK         0.5551 
     20 N         -72.8551   30.6723  -77.3589 N.am      10 UNK        -0.7319 
     21 O         -74.7271   31.8395  -77.3169 O.2       10 UNK        -0.5018 
     22 N         -73.0081   30.0916  -74.6168 N.am      10 UNK        -0.4509 
     23 C         -72.9338   28.8267  -74.1920 C.2       10 UNK         0.4899 
     24 O         -73.8757   28.0328  -74.1692 O.2       10 UNK        -0.4839 
     25 CA        -71.5403   28.3593  -73.7414 C.3       9 UNK         0.0222 
     26 CB        -71.5992   27.6541  -72.3761 C.3       9 UNK        -0.1966 
     27 N         -70.9574   27.4540  -74.7316 N.am      9 UNK        -0.4218 
     28 C         -70.6265   27.7874  -75.9883 C.2       9 UNK         0.5020 
     29 O         -70.6759   28.9387  -76.4256 O.2       9 UNK        -0.5274 
     30 CA        -70.1681   26.6499  -76.9223 C.3       8 UNK         0.0270 
     31 CB        -68.6329   26.5970  -76.9903 C.3       8 UNK        -0.1976 
     32 N         -70.6839   25.3276  -76.5462 N.am      8 UNK        -0.4313 
     33 C         -71.9774   24.9800  -76.5820 C.2       8 UNK         0.5041 
     34 O         -72.8754   25.7250  -76.9837 O.2       8 UNK        -0.5577 
     35 CA        -72.3279   23.5787  -76.0630 C.3       7 UNK         0.0284 
     36 CB        -71.8931   23.3878  -74.5947 C.3       7 UNK        -0.1958 
     37 N         -73.7724   23.4085  -76.1612 N.am      7 UNK        -0.4454 
     38 C         -74.4382   22.2528  -76.2320 C.2       7 UNK         0.5089 
     39 O         -73.8927   21.1491  -76.2934 O.2       7 UNK        -0.5125 
     40 CA        -75.9774   22.3693  -76.1974 C.3       6 UNK         0.0408 
     41 CB        -76.6817   21.0072  -76.0235 C.3       6 UNK        -0.1791 
     42 N         -76.4479   23.3279  -75.1850 N.am      6 UNK        -0.4762 
     43 C         -76.1929   23.3086  -73.8647 C.2       6 UNK         0.5007 
     44 O         -75.5417   22.4179  -73.3169 O.2       6 UNK        -0.5032 
     45 CA        -76.7655   24.4759  -73.0233 C.3       5 UNK         0.0783 
     46 C46       -76.2095   24.5287  -71.5708 C.3       11 UNK        -0.0857 
     47 S47       -74.6423   25.4571  -71.3951 S.3       11 UNK        -0.2512 
     48 C48       -75.0711   26.7231  -70.1525 C.3       11 UNK         0.0225 
     49 N         -76.6474   25.7666  -73.7197 N.am      5 UNK        -0.4615 
     50 C         -77.4958   26.2338  -74.6376 C.2       4 UNK         0.5053 
     51 O         -78.5147   25.6309  -74.9857 O.2       4 UNK        -0.5105 
     52 CA        -77.1214   27.5465  -75.3284 C.3       4 UNK         0.0263 
     53 CB        -76.1488   27.2772  -76.4925 C.3       4 UNK        -0.1981 
     54 N         -78.3505   28.1540  -75.8260 N.am      4 UNK        -0.4224 
     55 C         -78.5095   29.3970  -76.2954 C.2       3 UNK         0.4895 
     56 O         -77.6004   30.2246  -76.3447 O.2       3 UNK        -0.5091 
     57 CA        -79.9237   29.8114  -76.7606 C.3       3 UNK         0.0250 
     58 CB        -79.8924   30.5892  -78.0936 C.3       3 UNK        -0.1996 
     59 N         -80.8976   28.7096  -76.8072 N.am      3 UNK        -0.4254 
     60 C         -80.9019   27.6369  -77.6133 C.2       2 UNK         0.5004 
     61 O         -80.0897   27.4501  -78.5200 O.2       2 UNK        -0.5226 
     62 CA        -81.9504   26.5582  -77.2799 C.3       2 UNK         0.0269 
     63 CB        -81.9283   25.3794  -78.2710 C.3       2 UNK        -0.1926 
     64 N         -81.7323   26.0395  -75.9261 N.am      2 UNK        -0.4687 
     65 C         -82.1400   26.6264  -74.7904 C.2       1 UNK         0.5165 
     66 O         -82.8118   27.6594  -74.7842 O.2       1 UNK        -0.5079 
     67 H67       -79.4034   22.8749  -74.4835 H         1 UNK         0.0900 
     68 H68       -80.7112   21.6971  -74.5293 H         1 UNK         0.0900 
     69 H69       -79.8606   22.0059  -73.0131 H         1 UNK         0.0900 
     70 H70       -79.9202   25.0219  -74.0239 H         1 UNK         0.2959 
     71 H71       -82.6098   25.7209  -72.9285 H         1 UNK         0.1079 
     72 H72       -81.5402   27.9764  -72.5049 H         1 UNK         0.0837 
     73 H73       -80.0027   27.3376  -73.0397 H         1 UNK         0.0837 
     74 H74       -80.6262   28.8134  -70.3101 H         1 UNK         0.0685 
     75 H75       -79.9674   27.8303  -69.0269 H         1 UNK         0.0685 
     76 H76       -77.7117   26.6243  -69.4597 H         1 UNK         0.1434 
     77 H77       -74.9374   28.8499  -71.8424 H         1 UNK         0.1329 
     78 H78       -79.0893   29.9459  -71.7822 H         1 UNK         0.1335 
     79 H79       -76.8409   30.3499  -73.8634 H         1 UNK         0.0680 
     80 H80       -77.4799   31.4931  -72.7148 H         1 UNK         0.0680 
     81 H81       -73.9808   32.7320  -74.4001 H         1 UNK         0.1032 
     82 H82       -75.6174   32.3366  -74.8523 H         1 UNK         0.1032 
     83 H83       -74.9898   29.9874  -75.2872 H         1 UNK         0.0461 
     84 H84       -72.7117   30.9413  -78.3189 H         1 UNK         0.3453 
     85 H85       -72.1815   30.0629  -76.9044 H         1 UNK         0.3453 
     86 H86       -72.1646   30.6468  -74.6311 H         1 UNK         0.2984 
     87 H87       -70.8851   29.2275  -73.6438 H         1 UNK         0.0554 
     88 H88       -70.6015   27.4142  -72.0087 H         1 UNK         0.0847 
     89 H89       -72.1696   26.7265  -72.4265 H         1 UNK         0.0847 
     90 H90       -72.0771   28.2891  -71.6288 H         1 UNK         0.0847 
     91 H91       -70.9062   26.4801  -74.4756 H         1 UNK         0.3141 
     92 H92       -70.5455   26.8824  -77.9206 H         1 UNK         0.0743 
     93 H93       -68.1929   26.3483  -76.0237 H         1 UNK         0.0784 
     94 H94       -68.2920   25.8588  -77.7165 H         1 UNK         0.0784 
     95 H95       -68.2232   27.5610  -77.2958 H         1 UNK         0.0784 
     96 H96       -70.0055   24.6520  -76.2236 H         1 UNK         0.3213 
     97 H97       -71.8305   22.8441  -76.6999 H         1 UNK         0.0855 
     98 H98       -72.3453   24.1363  -73.9419 H         1 UNK         0.0814 
     99 H99       -70.8112   23.4590  -74.4807 H         1 UNK         0.0814 
    100 H100      -72.1862   22.4068  -74.2196 H         1 UNK         0.0814 
    101 H101      -74.2810   24.2832  -76.2047 H         1 UNK         0.3105 
    102 H102      -76.2753   22.7728  -77.1662 H         1 UNK         0.0547 
    103 H103      -76.4217   20.3269  -76.8353 H         1 UNK         0.0837 
    104 H104      -76.3983   20.5205  -75.0898 H         1 UNK         0.0837 
    105 H105      -77.7660   21.1169  -76.0291 H         1 UNK         0.0837 
    106 H106      -77.0167   24.0908  -75.5313 H         1 UNK         0.3020 
    107 H107      -77.8280   24.2444  -72.9251 H         1 UNK         0.1245 
    108 H108      -76.0714   23.5326  -71.1471 H         1 UNK         0.0781 
    109 H109      -76.9666   24.9756  -70.9316 H         1 UNK         0.0781 
    110 H110      -74.1827   27.3201  -69.9412 H         1 UNK         0.0836 
    111 H111      -75.3319   26.2290  -69.2153 H         1 UNK         0.0836 
    112 H112      -75.8183   26.3034  -73.4947 H         1 UNK         0.3022 
    113 H113      -76.6546   28.2066  -74.5974 H         1 UNK         0.0747 
    114 H114      -75.2494   26.7696  -76.1426 H         1 UNK         0.0793 
    115 H115      -76.6026   26.6498  -77.2606 H         1 UNK         0.0793 
    116 H116      -75.8240   28.2036  -76.9657 H         1 UNK         0.0793 
    117 H117      -79.1422   27.5244  -75.8240 H         1 UNK         0.3047 
    118 H118      -80.2924   30.4956  -75.9949 H         1 UNK         0.0822 
    119 H119      -80.8931   30.8927  -78.4007 H         1 UNK         0.0807 
    120 H120      -79.4572   29.9977  -78.8994 H         1 UNK         0.0807 
    121 H121      -79.2942   31.4966  -78.0024 H         1 UNK         0.0807 
    122 H122      -81.6057   28.7266  -76.0795 H         1 UNK         0.2946 
    123 H123      -82.9354   27.0278  -77.3376 H         1 UNK         0.1144 
    124 H124      -82.7055   24.6514  -78.0378 H         1 UNK         0.0793 
    125 H125      -80.9690   24.8602  -78.2621 H         1 UNK         0.0793 
    126 H126      -82.1043   25.7237  -79.2911 H         1 UNK         0.0793 
    127 H127      -81.1528   25.2158  -75.8465 H         1 UNK         0.2896 
@<TRIPOS>BOND
     1    1    2 1    
     2    1   67 1    
     3    1   68 1    
     4    1   69 1    
     5    2    3 2    
     6    2    4 am   BACKBONE|DICT|INTERRES
     7    4    5 1    
     8    4   70 1    
     9    5    6 1    
    10    5   65 1    
    11    5   71 1    
    12    6    7 1    
    13    6   72 1    
    14    6   73 1    
    15    7    8 1    
    16    8    9 1    
    17    8   74 1    
    18    8   75 1    
    19    9   10 ar   
    20    9   14 ar   
    21   10   11 ar   
    22   10   76 1    
    23   11   12 ar   
    24   11   48 1    
    25   12   13 ar   
    26   12   77 1    
    27   13   14 ar   
    28   13   15 1    
    29   14   78 1    
    30   15   16 1    
    31   15   79 1    
    32   15   80 1    
    33   16   17 1    
    34   17   18 1    
    35   17   81 1    
    36   17   82 1    
    37   18   19 1    
    38   18   22 1    
    39   18   83 1    
    40   19   20 am   BACKBONE|DICT|INTERRES
    41   19   21 2    
    42   20   84 1    
    43   20   85 1    
    44   22   23 am   BACKBONE|DICT|INTERRES
    45   22   86 1    
    46   23   24 2    
    47   23   25 1    
    48   25   26 1    
    49   25   27 1    
    50   25   87 1    
    51   26   88 1    
    52   26   89 1    
    53   26   90 1    
    54   27   28 am   BACKBONE|DICT|INTERRES
    55   27   91 1    
    56   28   29 2    
    57   28   30 1    
    58   30   31 1    
    59   30   32 1    
    60   30   92 1    
    61   31   93 1    
    62   31   94 1    
    63   31   95 1    
    64   32   33 am   BACKBONE|DICT|INTERRES
    65   32   96 1    
    66   33   34 2    
    67   33   35 1    
    68   35   36 1    
    69   35   37 1    
    70   35   97 1    
    71   36   98 1    
    72   36   99 1    
    73   36  100 1    
    74   37   38 am   BACKBONE|DICT|INTERRES
    75   37  101 1    
    76   38   39 2    
    77   38   40 1    
    78   40   41 1    
    79   40   42 1    
    80   40  102 1    
    81   41  103 1    
    82   41  104 1    
    83   41  105 1    
    84   42   43 am   BACKBONE|DICT|INTERRES
    85   42  106 1    
    86   43   44 2    
    87   43   45 1    
    88   45   46 1    
    89   45   49 1    
    90   45  107 1    
    91   46   47 1    
    92   46  108 1    
    93   46  109 1    
    94   47   48 1    
    95   48  110 1    
    96   48  111 1    
    97   49   50 am   BACKBONE|DICT|INTERRES
    98   49  112 1    
    99   50   51 2    
   100   50   52 1    
   101   52   53 1    
   102   52   54 1    
   103   52  113 1    
   104   53  114 1    
   105   53  115 1    
   106   53  116 1    
   107   54   55 am   BACKBONE|DICT|INTERRES
   108   54  117 1    
   109   55   56 2    
   110   55   57 1    
   111   57   58 1    
   112   57   59 1    
   113   57  118 1    
   114   58  119 1    
   115   58  120 1    
   116   58  121 1    
   117   59   60 am   BACKBONE|DICT|INTERRES
   118   59  122 1    
   119   60   61 2    
   120   60   62 1    
   121   62   63 1    
   122   62   64 1    
   123   62  123 1    
   124   63  124 1    
   125   63  125 1    
   126   63  126 1    
   127   64   65 am   BACKBONE|DICT|INTERRES
   128   64  127 1    
   129   65   66 2    
@<TRIPOS>SUBSTRUCTURE
     1 UNK         1 GROUP             0       ****    0 ROOT    
