@<TRIPOS>MOLECULE
3R135
127   129    1
SMALL
USER_CHARGES


@<TRIPOS>ATOM
      1 CA        -84.4331   27.2516  -74.5155 C.3       0 UNK        -0.1998 
      2 C         -83.4884   28.2943  -73.9371 C.2       0 UNK         0.4909 
      3 O         -83.6692   29.4874  -74.1810 O.2       0 UNK        -0.5240 
      4 N         -82.4781   27.8527  -73.1754 N.am      1 UNK        -0.4739 
      5 CA        -81.4536   28.7105  -72.5594 C.3       1 UNK         0.0864 
      6 C6        -80.8277   28.0212  -71.3171 C.3       11 UNK        -0.0881 
      7 S7        -80.4299   29.2171  -70.0016 S.3       11 UNK        -0.2682 
      8 C8        -79.4212   28.1936  -68.8843 C.3       11 UNK         0.0289 
      9 C9        -78.0371   27.8944  -69.4466 C.ar      11 UNK        -0.0687 
     10 C10       -77.6213   26.5726  -69.6384 C.ar      11 UNK        -0.0823 
     11 C11       -76.3277   26.2899  -70.0906 C.ar      11 UNK        -0.0830 
     12 C12       -75.4501   27.3482  -70.3533 C.ar      11 UNK        -0.1021 
     13 C13       -75.8620   28.6740  -70.1921 C.ar      11 UNK        -0.0753 
     14 C14       -77.1539   28.9401  -69.7317 C.ar      11 UNK        -0.0933 
     15 C15       -74.9044   29.8181  -70.4934 C.3       11 UNK         0.0166 
     16 S16       -74.4323   29.8796  -72.2497 S.3       11 UNK        -0.2615 
     17 C17       -76.0282   30.2644  -73.0530 C.3       11 UNK        -0.0865 
     18 CA        -75.9116   30.4374  -74.5903 C.3       10 UNK         0.0862 
     19 C         -75.1770   31.7550  -74.9811 C.2       10 UNK         0.5551 
     20 N         -74.0077   31.7075  -75.6115 N.am      10 UNK        -0.7319 
     21 O         -75.6882   32.8408  -74.7187 O.2       10 UNK        -0.5018 
     22 N         -75.3611   29.2296  -75.2224 N.am      10 UNK        -0.4509 
     23 C         -75.5139   28.8958  -76.5088 C.2       10 UNK         0.4899 
     24 O         -76.3233   29.4416  -77.2589 O.2       10 UNK        -0.4839 
     25 CA        -74.6606   27.7329  -77.0520 C.3       9 UNK         0.0222 
     26 CB        -74.1543   28.0029  -78.4833 C.3       9 UNK        -0.1966 
     27 N         -73.5558   27.3229  -76.1766 N.am      9 UNK        -0.4218 
     28 C         -72.4885   28.0345  -75.7837 C.2       9 UNK         0.5020 
     29 O         -72.2978   29.2079  -76.1071 O.2       9 UNK        -0.5274 
     30 CA        -71.4792   27.3431  -74.8506 C.3       8 UNK         0.0270 
     31 CB        -71.7507   27.7241  -73.3862 C.3       8 UNK        -0.1976 
     32 N         -71.4950   25.8802  -74.9700 N.am      8 UNK        -0.4313 
     33 C         -70.4115   25.1137  -75.1587 C.2       8 UNK         0.5041 
     34 O         -69.2666   25.5575  -75.2613 O.2       8 UNK        -0.5577 
     35 CA        -70.6225   23.5875  -75.2361 C.3       7 UNK         0.0284 
     36 CB        -70.3771   22.9451  -73.8610 C.3       7 UNK        -0.1958 
     37 N         -71.9510   23.1988  -75.7151 N.am      7 UNK        -0.4454 
     38 C         -72.4090   23.4083  -76.9562 C.2       7 UNK         0.5089 
     39 O         -71.7180   23.8610  -77.8691 O.2       7 UNK        -0.5125 
     40 CA        -73.8910   23.0843  -77.2320 C.3       6 UNK         0.0408 
     41 CB        -74.0134   21.7657  -78.0115 C.3       6 UNK        -0.1791 
     42 N         -74.7870   23.0299  -76.0665 N.am      6 UNK        -0.4762 
     43 C         -74.9654   23.9856  -75.1432 C.2       6 UNK         0.5007 
     44 O         -74.2408   24.9761  -75.0504 O.2       6 UNK        -0.5032 
     45 CA        -76.1886   23.8345  -74.2122 C.3       5 UNK         0.0783 
     46 C46       -76.2149   24.8719  -73.0591 C.3       11 UNK        -0.0857 
     47 S47       -74.9545   24.5203  -71.7866 S.3       11 UNK        -0.2512 
     48 C48       -75.8775   24.8390  -70.2456 C.3       11 UNK         0.0225 
     49 N         -77.4095   23.9173  -75.0180 N.am      5 UNK        -0.4615 
     50 C         -77.9318   22.9109  -75.7308 C.2       4 UNK         0.5053 
     51 O         -77.4890   21.7618  -75.7099 O.2       4 UNK        -0.5105 
     52 CA        -79.1132   23.2513  -76.6532 C.3       4 UNK         0.0263 
     53 CB        -80.4434   23.1261  -75.8935 C.3       4 UNK        -0.1981 
     54 N         -79.0215   24.5866  -77.2513 N.am      4 UNK        -0.4224 
     55 C         -78.0905   25.0008  -78.1208 C.2       3 UNK         0.4895 
     56 O         -77.1623   24.2950  -78.5139 O.2       3 UNK        -0.5091 
     57 CA        -78.2083   26.4437  -78.6529 C.3       3 UNK         0.0250 
     58 CB        -79.2546   26.5274  -79.7809 C.3       3 UNK        -0.1996 
     59 N         -78.4422   27.4804  -77.6340 N.am      3 UNK        -0.4254 
     60 C         -79.4879   27.6361  -76.8114 C.2       2 UNK         0.5004 
     61 O         -80.4694   26.8869  -76.7810 O.2       2 UNK        -0.5226 
     62 CA        -79.4179   28.8242  -75.8481 C.3       2 UNK         0.0269 
     63 CB        -79.7432   30.1471  -76.5669 C.3       2 UNK        -0.1926 
     64 N         -80.3646   28.5851  -74.7666 N.am      2 UNK        -0.4687 
     65 C         -80.3722   29.1748  -73.5663 C.2       1 UNK         0.5165 
     66 O         -79.5648   30.0462  -73.2415 O.2       1 UNK        -0.5079 
     67 H67       -84.4099   27.2887  -75.6044 H         1 UNK         0.0900 
     68 H68       -84.1662   26.2415  -74.2052 H         1 UNK         0.0900 
     69 H69       -85.4540   27.4478  -74.1890 H         1 UNK         0.0900 
     70 H70       -82.3795   26.8606  -73.0104 H         1 UNK         0.2959 
     71 H71       -81.9629   29.6188  -72.2280 H         1 UNK         0.1079 
     72 H72       -81.5287   27.3075  -70.8806 H         1 UNK         0.0837 
     73 H73       -79.9401   27.4418  -71.5805 H         1 UNK         0.0837 
     74 H74       -79.9620   27.2738  -68.6560 H         1 UNK         0.0685 
     75 H75       -79.3053   28.7227  -67.9374 H         1 UNK         0.0685 
     76 H76       -78.2997   25.7610  -69.4125 H         1 UNK         0.1434 
     77 H77       -74.4442   27.1433  -70.6939 H         1 UNK         0.1329 
     78 H78       -77.4754   29.9626  -69.5869 H         1 UNK         0.1335 
     79 H79       -75.3358   30.7784  -70.2064 H         1 UNK         0.0680 
     80 H80       -74.0031   29.6937  -69.8918 H         1 UNK         0.0680 
     81 H81       -76.4585   31.1572  -72.5951 H         1 UNK         0.1032 
     82 H82       -76.7293   29.4572  -72.8332 H         1 UNK         0.1032 
     83 H83       -76.9287   30.5647  -74.9636 H         1 UNK         0.0461 
     84 H84       -73.5485   32.5683  -75.8619 H         1 UNK         0.3453 
     85 H85       -73.5570   30.8209  -75.8080 H         1 UNK         0.3453 
     86 H86       -74.6798   28.7291  -74.6713 H         1 UNK         0.2984 
     87 H87       -75.3292   26.8721  -77.0993 H         1 UNK         0.0554 
     88 H88       -74.9837   28.1698  -79.1715 H         1 UNK         0.0847 
     89 H89       -73.5838   27.1571  -78.8670 H         1 UNK         0.0847 
     90 H90       -73.5158   28.8858  -78.5264 H         1 UNK         0.0847 
     91 H91       -73.6823   26.3930  -75.7771 H         1 UNK         0.3141 
     92 H92       -70.4964   27.7313  -75.1257 H         1 UNK         0.0743 
     93 H93       -71.7392   28.8070  -73.2553 H         1 UNK         0.0784 
     94 H94       -72.7218   27.3600  -73.0474 H         1 UNK         0.0784 
     95 H95       -70.9902   27.3115  -72.7233 H         1 UNK         0.0784 
     96 H96       -72.3996   25.4223  -74.8981 H         1 UNK         0.3213 
     97 H97       -69.8839   23.1912  -75.9365 H         1 UNK         0.0855 
     98 H98       -71.0989   23.2900  -73.1192 H         1 UNK         0.0814 
     99 H99       -69.3826   23.1930  -73.4870 H         1 UNK         0.0814 
    100 H100      -70.4396   21.8580  -73.9127 H         1 UNK         0.0814 
    101 H101      -72.5947   22.8234  -75.0338 H         1 UNK         0.3105 
    102 H102      -74.2672   23.8860  -77.8710 H         1 UNK         0.0547 
    103 H103      -73.7043   20.9112  -77.4084 H         1 UNK         0.0837 
    104 H104      -73.3884   21.7777  -78.9057 H         1 UNK         0.0837 
    105 H105      -75.0387   21.5940  -78.3402 H         1 UNK         0.0837 
    106 H106      -75.4643   22.2748  -76.0687 H         1 UNK         0.3020 
    107 H107      -76.1358   22.8391  -73.7639 H         1 UNK         0.1245 
    108 H108      -77.1952   24.8558  -72.5799 H         1 UNK         0.0781 
    109 H109      -76.0814   25.8920  -73.4251 H         1 UNK         0.0781 
    110 H110      -75.2393   24.5831  -69.3990 H         1 UNK         0.0836 
    111 H111      -76.7304   24.1598  -70.2028 H         1 UNK         0.0836 
    112 H112      -77.8183   24.8336  -75.1209 H         1 UNK         0.3022 
    113 H113      -79.1130   22.5238  -77.4676 H         1 UNK         0.0747 
    114 H114      -80.5178   23.8548  -75.0851 H         1 UNK         0.0793 
    115 H115      -81.2944   23.2762  -76.5581 H         1 UNK         0.0793 
    116 H116      -80.5497   22.1344  -75.4514 H         1 UNK         0.0793 
    117 H117      -79.7432   25.2616  -77.0013 H         1 UNK         0.3047 
    118 H118      -77.2398   26.6863  -79.0937 H         1 UNK         0.0822 
    119 H119      -79.2714   27.5197  -80.2316 H         1 UNK         0.0807 
    120 H120      -80.2608   26.3052  -79.4241 H         1 UNK         0.0807 
    121 H121      -79.0286   25.8150  -80.5755 H         1 UNK         0.0807 
    122 H122      -77.7081   28.1824  -77.5746 H         1 UNK         0.2946 
    123 H123      -78.4133   28.8629  -75.4255 H         1 UNK         0.1144 
    124 H124      -79.6658   30.9983  -75.8904 H         1 UNK         0.0793 
    125 H125      -80.7515   30.1401  -76.9826 H         1 UNK         0.0793 
    126 H126      -79.0498   30.3295  -77.3890 H         1 UNK         0.0793 
    127 H127      -81.0430   27.8601  -74.9667 H         1 UNK         0.2896 
@<TRIPOS>BOND
     1    1    2 1    
     2    1   67 1    
     3    1   68 1    
     4    1   69 1    
     5    2    3 2    
     6    2    4 am   BACKBONE|DICT|INTERRES
     7    4    5 1    
     8    4   70 1    
     9    5    6 1    
    10    5   65 1    
    11    5   71 1    
    12    6    7 1    
    13    6   72 1    
    14    6   73 1    
    15    7    8 1    
    16    8    9 1    
    17    8   74 1    
    18    8   75 1    
    19    9   10 ar   
    20    9   14 ar   
    21   10   11 ar   
    22   10   76 1    
    23   11   12 ar   
    24   11   48 1    
    25   12   13 ar   
    26   12   77 1    
    27   13   14 ar   
    28   13   15 1    
    29   14   78 1    
    30   15   16 1    
    31   15   79 1    
    32   15   80 1    
    33   16   17 1    
    34   17   18 1    
    35   17   81 1    
    36   17   82 1    
    37   18   19 1    
    38   18   22 1    
    39   18   83 1    
    40   19   20 am   BACKBONE|DICT|INTERRES
    41   19   21 2    
    42   20   84 1    
    43   20   85 1    
    44   22   23 am   BACKBONE|DICT|INTERRES
    45   22   86 1    
    46   23   24 2    
    47   23   25 1    
    48   25   26 1    
    49   25   27 1    
    50   25   87 1    
    51   26   88 1    
    52   26   89 1    
    53   26   90 1    
    54   27   28 am   BACKBONE|DICT|INTERRES
    55   27   91 1    
    56   28   29 2    
    57   28   30 1    
    58   30   31 1    
    59   30   32 1    
    60   30   92 1    
    61   31   93 1    
    62   31   94 1    
    63   31   95 1    
    64   32   33 am   BACKBONE|DICT|INTERRES
    65   32   96 1    
    66   33   34 2    
    67   33   35 1    
    68   35   36 1    
    69   35   37 1    
    70   35   97 1    
    71   36   98 1    
    72   36   99 1    
    73   36  100 1    
    74   37   38 am   BACKBONE|DICT|INTERRES
    75   37  101 1    
    76   38   39 2    
    77   38   40 1    
    78   40   41 1    
    79   40   42 1    
    80   40  102 1    
    81   41  103 1    
    82   41  104 1    
    83   41  105 1    
    84   42   43 am   BACKBONE|DICT|INTERRES
    85   42  106 1    
    86   43   44 2    
    87   43   45 1    
    88   45   46 1    
    89   45   49 1    
    90   45  107 1    
    91   46   47 1    
    92   46  108 1    
    93   46  109 1    
    94   47   48 1    
    95   48  110 1    
    96   48  111 1    
    97   49   50 am   BACKBONE|DICT|INTERRES
    98   49  112 1    
    99   50   51 2    
   100   50   52 1    
   101   52   53 1    
   102   52   54 1    
   103   52  113 1    
   104   53  114 1    
   105   53  115 1    
   106   53  116 1    
   107   54   55 am   BACKBONE|DICT|INTERRES
   108   54  117 1    
   109   55   56 2    
   110   55   57 1    
   111   57   58 1    
   112   57   59 1    
   113   57  118 1    
   114   58  119 1    
   115   58  120 1    
   116   58  121 1    
   117   59   60 am   BACKBONE|DICT|INTERRES
   118   59  122 1    
   119   60   61 2    
   120   60   62 1    
   121   62   63 1    
   122   62   64 1    
   123   62  123 1    
   124   63  124 1    
   125   63  125 1    
   126   63  126 1    
   127   64   65 am   BACKBONE|DICT|INTERRES
   128   64  127 1    
   129   65   66 2    
@<TRIPOS>SUBSTRUCTURE
     1 UNK         1 GROUP             0       ****    0 ROOT    
