@<TRIPOS>MOLECULE
3R135
127   129    1
SMALL
USER_CHARGES


@<TRIPOS>ATOM
      1 CA        -83.3819   25.9820  -73.4887 C.3       0 UNK        -0.1998 
      2 C         -84.4569   26.6051  -74.3700 C.2       0 UNK         0.4909 
      3 O         -85.6155   26.2090  -74.2617 O.2       0 UNK        -0.5240 
      4 N         -84.1560   27.5601  -75.2637 N.am      1 UNK        -0.4739 
      5 CA        -82.8714   28.2090  -75.5839 C.3       1 UNK         0.0864 
      6 C6        -82.2078   28.9561  -74.3802 C.3       11 UNK        -0.0881 
      7 S7        -80.7956   28.1500  -73.5411 S.3       11 UNK        -0.2682 
      8 C8        -80.3538   29.4238  -72.3186 C.3       11 UNK         0.0289 
      9 C9        -78.9536   29.2209  -71.7511 C.ar      11 UNK        -0.0687 
     10 C10       -78.6223   28.0398  -71.0796 C.ar      11 UNK        -0.0823 
     11 C11       -77.3467   27.8651  -70.5335 C.ar      11 UNK        -0.0830 
     12 C12       -76.4032   28.8893  -70.6439 C.ar      11 UNK        -0.1021 
     13 C13       -76.7203   30.0755  -71.3117 C.ar      11 UNK        -0.0753 
     14 C14       -77.9932   30.2313  -71.8706 C.ar      11 UNK        -0.0933 
     15 C15       -75.7031   31.2044  -71.3992 C.3       11 UNK         0.0166 
     16 S16       -74.5442   30.9721  -72.7814 S.3       11 UNK        -0.2615 
     17 C17       -73.3798   29.7510  -72.0798 C.3       11 UNK        -0.0865 
     18 CA        -72.0049   29.7506  -72.8005 C.3       10 UNK         0.0862 
     19 C         -70.9892   28.7863  -72.1195 C.2       10 UNK         0.5551 
     20 N         -70.2548   27.9564  -72.8528 N.am      10 UNK        -0.7319 
     21 O         -70.8508   28.8015  -70.8988 O.2       10 UNK        -0.5018 
     22 N         -72.1557   29.4983  -74.2401 N.am      10 UNK        -0.4509 
     23 C         -71.5066   30.1501  -75.2104 C.2       10 UNK         0.4899 
     24 O         -70.7211   31.0780  -75.0078 O.2       10 UNK        -0.4839 
     25 CA        -71.7884   29.6824  -76.6508 C.3       9 UNK         0.0222 
     26 CB        -70.7471   30.1978  -77.6674 C.3       9 UNK        -0.1966 
     27 N         -71.9557   28.2287  -76.7695 N.am      9 UNK        -0.4218 
     28 C         -71.0540   27.2768  -76.4785 C.2       9 UNK         0.5020 
     29 O         -69.9427   27.5237  -76.0065 O.2       9 UNK        -0.5274 
     30 CA        -71.4387   25.8020  -76.7308 C.3       8 UNK         0.0270 
     31 CB        -71.0694   24.9187  -75.5252 C.3       8 UNK        -0.1976 
     32 N         -72.8559   25.6036  -77.0460 N.am      8 UNK        -0.4313 
     33 C         -73.4351   25.8237  -78.2337 C.2       8 UNK         0.5041 
     34 O         -72.8150   26.1409  -79.2488 O.2       8 UNK        -0.5577 
     35 CA        -74.9728   25.7426  -78.2795 C.3       7 UNK         0.0284 
     36 CB        -75.4366   24.3080  -78.5750 C.3       7 UNK        -0.1958 
     37 N         -75.6080   26.2259  -77.0474 N.am      7 UNK        -0.4454 
     38 C         -75.5126   27.4796  -76.5797 C.2       7 UNK         0.5089 
     39 O         -74.9221   28.3838  -77.1703 O.2       7 UNK        -0.5125 
     40 CA        -76.1193   27.7584  -75.1952 C.3       6 UNK         0.0408 
     41 CB        -77.6256   28.0253  -75.2943 C.3       6 UNK        -0.1791 
     42 N         -75.8640   26.6738  -74.2445 N.am      6 UNK        -0.4762 
     43 C         -74.6519   26.3795  -73.7551 C.2       6 UNK         0.5007 
     44 O         -73.6345   27.0119  -74.0390 O.2       6 UNK        -0.5032 
     45 CA        -74.5383   25.1400  -72.8458 C.3       5 UNK         0.0783 
     46 C46       -74.9025   25.4459  -71.3656 C.3       11 UNK        -0.0857 
     47 S47       -76.6732   25.2178  -70.9591 S.3       11 UNK        -0.2512 
     48 C48       -77.0042   26.5788  -69.8006 C.3       11 UNK         0.0225 
     49 N         -75.2780   23.9927  -73.3788 N.am      5 UNK        -0.4615 
     50 C         -75.0284   23.3724  -74.5373 C.2       4 UNK         0.5053 
     51 O         -74.0817   23.6483  -75.2708 O.2       4 UNK        -0.5105 
     52 CA        -76.0380   22.2951  -74.9703 C.3       4 UNK         0.0263 
     53 CB        -75.6764   20.9369  -74.3491 C.3       4 UNK        -0.1981 
     54 N         -77.4283   22.6347  -74.6411 N.am      4 UNK        -0.4224 
     55 C         -78.0790   23.7080  -75.1114 C.2       3 UNK         0.4895 
     56 O         -77.5698   24.5413  -75.8638 O.2       3 UNK        -0.5091 
     57 CA        -79.5149   23.9159  -74.6064 C.3       3 UNK         0.0250 
     58 CB        -79.5032   24.6590  -73.2609 C.3       3 UNK        -0.1996 
     59 N         -80.3114   24.6825  -75.5653 N.am      3 UNK        -0.4254 
     60 C         -80.7951   24.1952  -76.7163 C.2       2 UNK         0.5004 
     61 O         -80.6630   23.0184  -77.0588 O.2       2 UNK        -0.5226 
     62 CA        -81.5813   25.1701  -77.6181 C.3       2 UNK         0.0269 
     63 CB        -82.5397   24.4367  -78.5760 C.3       2 UNK        -0.1926 
     64 N         -82.3539   26.1405  -76.8352 N.am      2 UNK        -0.4687 
     65 C         -81.9256   27.3546  -76.4638 C.2       1 UNK         0.5165 
     66 O         -80.8342   27.8095  -76.8061 O.2       1 UNK        -0.5079 
     67 H67       -83.7174   25.0191  -73.1043 H         1 UNK         0.0900 
     68 H68       -83.1730   26.6258  -72.6352 H         1 UNK         0.0900 
     69 H69       -82.4591   25.8065  -74.0344 H         1 UNK         0.0900 
     70 H70       -84.9245   27.9081  -75.8214 H         1 UNK         0.2959 
     71 H71       -83.1780   28.9994  -76.2718 H         1 UNK         0.1079 
     72 H72       -81.8332   29.9145  -74.7440 H         1 UNK         0.0837 
     73 H73       -82.9583   29.2136  -73.6312 H         1 UNK         0.0837 
     74 H74       -81.0798   29.4059  -71.5048 H         1 UNK         0.0685 
     75 H75       -80.4333   30.4073  -72.7842 H         1 UNK         0.0685 
     76 H76       -79.3590   27.2533  -70.9860 H         1 UNK         0.1434 
     77 H77       -75.4239   28.7673  -70.2029 H         1 UNK         0.1329 
     78 H78       -78.2407   31.1503  -72.3840 H         1 UNK         0.1335 
     79 H79       -76.2173   32.1567  -71.5377 H         1 UNK         0.0680 
     80 H80       -75.1552   31.2950  -70.4602 H         1 UNK         0.0680 
     81 H81       -73.2434   29.9744  -71.0202 H         1 UNK         0.1032 
     82 H82       -73.8400   28.7647  -72.1252 H         1 UNK         0.1032 
     83 H83       -71.5818   30.7470  -72.6617 H         1 UNK         0.0461 
     84 H84       -70.3294   27.9525  -73.8615 H         1 UNK         0.3453 
     85 H85       -69.5974   27.3459  -72.3950 H         1 UNK         0.3453 
     86 H86       -72.7441   28.7039  -74.4735 H         1 UNK         0.2984 
     87 H87       -72.7511   30.1178  -76.9217 H         1 UNK         0.0554 
     88 H88       -70.9849   29.8705  -78.6794 H         1 UNK         0.0847 
     89 H89       -69.7416   29.8493  -77.4292 H         1 UNK         0.0847 
     90 H90       -70.7181   31.2880  -77.6799 H         1 UNK         0.0847 
     91 H91       -72.8699   27.9357  -77.0961 H         1 UNK         0.3141 
     92 H92       -70.8480   25.4654  -77.5851 H         1 UNK         0.0743 
     93 H93       -70.0010   24.9671  -75.3108 H         1 UNK         0.0784 
     94 H94       -71.5974   25.2297  -74.6234 H         1 UNK         0.0784 
     95 H95       -71.3114   23.8721  -75.7110 H         1 UNK         0.0784 
     96 H96       -73.4386   25.2645  -76.2860 H         1 UNK         0.3213 
     97 H97       -75.3124   26.3849  -79.0948 H         1 UNK         0.0855 
     98 H98       -75.0390   23.9600  -79.5292 H         1 UNK         0.0814 
     99 H99       -76.5235   24.2444  -78.6322 H         1 UNK         0.0814 
    100 H100      -75.0998   23.6100  -77.8092 H         1 UNK         0.0814 
    101 H101      -76.1735   25.5587  -76.5246 H         1 UNK         0.3105 
    102 H102      -75.6480   28.6630  -74.8039 H         1 UNK         0.0547 
    103 H103      -78.0228   28.3314  -74.3285 H         1 UNK         0.0837 
    104 H104      -77.8379   28.8303  -75.9989 H         1 UNK         0.0837 
    105 H105      -78.1811   27.1480  -75.6263 H         1 UNK         0.0837 
    106 H106      -76.6448   26.0838  -73.9975 H         1 UNK         0.3020 
    107 H107      -73.4813   24.8636  -72.8643 H         1 UNK         0.1245 
    108 H108      -74.5761   26.4471  -71.0779 H         1 UNK         0.0781 
    109 H109      -74.3453   24.7669  -70.7186 H         1 UNK         0.0781 
    110 H110      -76.1513   26.7171  -69.1343 H         1 UNK         0.0836 
    111 H111      -77.8426   26.2968  -69.1620 H         1 UNK         0.0836 
    112 H112      -76.0813   23.7077  -72.8374 H         1 UNK         0.3022 
    113 H113      -75.9719   22.2001  -76.0557 H         1 UNK         0.0747 
    114 H114      -76.3260   20.1444  -74.7211 H         1 UNK         0.0793 
    115 H115      -74.6517   20.6559  -74.5973 H         1 UNK         0.0793 
    116 H116      -75.7550   20.9541  -73.2613 H         1 UNK         0.0793 
    117 H117      -77.9133   22.0038  -74.0189 H         1 UNK         0.3047 
    118 H118      -79.9856   22.9403  -74.4666 H         1 UNK         0.0822 
    119 H119      -78.9852   24.0766  -72.4987 H         1 UNK         0.0807 
    120 H120      -80.5130   24.8353  -72.8914 H         1 UNK         0.0807 
    121 H121      -79.0003   25.6246  -73.3332 H         1 UNK         0.0807 
    122 H122      -80.4061   25.6722  -75.3887 H         1 UNK         0.2946 
    123 H123      -80.8409   25.6943  -78.2271 H         1 UNK         0.1144 
    124 H124      -81.9954   23.7583  -79.2345 H         1 UNK         0.0793 
    125 H125      -83.0762   25.1389  -79.2144 H         1 UNK         0.0793 
    126 H126      -83.2774   23.8444  -78.0334 H         1 UNK         0.0793 
    127 H127      -83.2677   25.8436  -76.5230 H         1 UNK         0.2896 
@<TRIPOS>BOND
     1    1    2 1    
     2    1   67 1    
     3    1   68 1    
     4    1   69 1    
     5    2    3 2    
     6    2    4 am   BACKBONE|DICT|INTERRES
     7    4    5 1    
     8    4   70 1    
     9    5    6 1    
    10    5   65 1    
    11    5   71 1    
    12    6    7 1    
    13    6   72 1    
    14    6   73 1    
    15    7    8 1    
    16    8    9 1    
    17    8   74 1    
    18    8   75 1    
    19    9   10 ar   
    20    9   14 ar   
    21   10   11 ar   
    22   10   76 1    
    23   11   12 ar   
    24   11   48 1    
    25   12   13 ar   
    26   12   77 1    
    27   13   14 ar   
    28   13   15 1    
    29   14   78 1    
    30   15   16 1    
    31   15   79 1    
    32   15   80 1    
    33   16   17 1    
    34   17   18 1    
    35   17   81 1    
    36   17   82 1    
    37   18   19 1    
    38   18   22 1    
    39   18   83 1    
    40   19   20 am   BACKBONE|DICT|INTERRES
    41   19   21 2    
    42   20   84 1    
    43   20   85 1    
    44   22   23 am   BACKBONE|DICT|INTERRES
    45   22   86 1    
    46   23   24 2    
    47   23   25 1    
    48   25   26 1    
    49   25   27 1    
    50   25   87 1    
    51   26   88 1    
    52   26   89 1    
    53   26   90 1    
    54   27   28 am   BACKBONE|DICT|INTERRES
    55   27   91 1    
    56   28   29 2    
    57   28   30 1    
    58   30   31 1    
    59   30   32 1    
    60   30   92 1    
    61   31   93 1    
    62   31   94 1    
    63   31   95 1    
    64   32   33 am   BACKBONE|DICT|INTERRES
    65   32   96 1    
    66   33   34 2    
    67   33   35 1    
    68   35   36 1    
    69   35   37 1    
    70   35   97 1    
    71   36   98 1    
    72   36   99 1    
    73   36  100 1    
    74   37   38 am   BACKBONE|DICT|INTERRES
    75   37  101 1    
    76   38   39 2    
    77   38   40 1    
    78   40   41 1    
    79   40   42 1    
    80   40  102 1    
    81   41  103 1    
    82   41  104 1    
    83   41  105 1    
    84   42   43 am   BACKBONE|DICT|INTERRES
    85   42  106 1    
    86   43   44 2    
    87   43   45 1    
    88   45   46 1    
    89   45   49 1    
    90   45  107 1    
    91   46   47 1    
    92   46  108 1    
    93   46  109 1    
    94   47   48 1    
    95   48  110 1    
    96   48  111 1    
    97   49   50 am   BACKBONE|DICT|INTERRES
    98   49  112 1    
    99   50   51 2    
   100   50   52 1    
   101   52   53 1    
   102   52   54 1    
   103   52  113 1    
   104   53  114 1    
   105   53  115 1    
   106   53  116 1    
   107   54   55 am   BACKBONE|DICT|INTERRES
   108   54  117 1    
   109   55   56 2    
   110   55   57 1    
   111   57   58 1    
   112   57   59 1    
   113   57  118 1    
   114   58  119 1    
   115   58  120 1    
   116   58  121 1    
   117   59   60 am   BACKBONE|DICT|INTERRES
   118   59  122 1    
   119   60   61 2    
   120   60   62 1    
   121   62   63 1    
   122   62   64 1    
   123   62  123 1    
   124   63  124 1    
   125   63  125 1    
   126   63  126 1    
   127   64   65 am   BACKBONE|DICT|INTERRES
   128   64  127 1    
   129   65   66 2    
@<TRIPOS>SUBSTRUCTURE
     1 UNK         1 GROUP             0       ****    0 ROOT    
