@<TRIPOS>MOLECULE
3R135
127   129    1
SMALL
USER_CHARGES


@<TRIPOS>ATOM
      1 CA        -81.4357   25.8675  -70.4150 C.3       0 UNK        -0.1998 
      2 C         -81.8376   27.1200  -71.1787 C.2       0 UNK         0.4909 
      3 O         -83.0241   27.3240  -71.4368 O.2       0 UNK        -0.5240 
      4 N         -80.8590   27.9598  -71.5419 N.am      1 UNK        -0.4739 
      5 CA        -81.0608   29.1749  -72.3403 C.3       1 UNK         0.0864 
      6 C6        -79.8537   30.1388  -72.2418 C.3       11 UNK        -0.0881 
      7 S7        -79.7723   31.0496  -70.6569 S.3       11 UNK        -0.2682 
      8 C8        -79.0858   29.8590  -69.4497 C.3       11 UNK         0.0289 
      9 C9        -77.9395   29.0155  -69.9929 C.ar      11 UNK        -0.0687 
     10 C10       -78.0045   27.6210  -69.9129 C.ar      11 UNK        -0.0823 
     11 C11       -76.9982   26.8284  -70.4705 C.ar      11 UNK        -0.0830 
     12 C12       -75.9017   27.4435  -71.0809 C.ar      11 UNK        -0.1021 
     13 C13       -75.8270   28.8355  -71.1712 C.ar      11 UNK        -0.0753 
     14 C14       -76.8346   29.6181  -70.6026 C.ar      11 UNK        -0.0933 
     15 C15       -74.6895   29.4892  -71.9402 C.3       11 UNK         0.0166 
     16 S16       -75.2602   30.1593  -73.5377 S.3       11 UNK        -0.2615 
     17 C17       -76.0547   28.6965  -74.2977 C.3       11 UNK        -0.0865 
     18 CA        -76.1549   28.7562  -75.8430 C.3       10 UNK         0.0862 
     19 C         -77.1745   29.8238  -76.3409 C.2       10 UNK         0.5551 
     20 N         -76.7940   30.7507  -77.2118 N.am      10 UNK        -0.7319 
     21 O         -78.3348   29.8035  -75.9399 O.2       10 UNK        -0.5018 
     22 N         -74.8204   28.8296  -76.4538 N.am      10 UNK        -0.4509 
     23 C         -74.4841   28.3800  -77.6674 C.2       10 UNK         0.4899 
     24 O         -75.2773   27.8474  -78.4411 O.2       10 UNK        -0.4839 
     25 CA        -73.0090   28.5090  -78.0925 C.3       9 UNK         0.0222 
     26 CB        -72.7738   29.7916  -78.9143 C.3       9 UNK        -0.1966 
     27 N         -72.0439   28.3724  -76.9896 N.am      9 UNK        -0.4218 
     28 C         -71.8048   29.2112  -75.9687 C.2       9 UNK         0.5020 
     29 O         -72.3744   30.2934  -75.8275 O.2       9 UNK        -0.5274 
     30 CA        -70.8276   28.7134  -74.8934 C.3       8 UNK         0.0270 
     31 CB        -70.8601   29.5574  -73.6045 C.3       8 UNK        -0.1976 
     32 N         -71.1343   27.3184  -74.5782 N.am      8 UNK        -0.4313 
     33 C         -70.2359   26.3337  -74.4836 C.2       8 UNK         0.5041 
     34 O         -69.0170   26.5057  -74.5346 O.2       8 UNK        -0.5577 
     35 CA        -70.7878   24.9049  -74.3298 C.3       7 UNK         0.0284 
     36 CB        -70.9207   24.5444  -72.8412 C.3       7 UNK        -0.1958 
     37 N         -72.0683   24.6366  -75.0011 N.am      7 UNK        -0.4454 
     38 C         -72.3700   24.8415  -76.2899 C.2       7 UNK         0.5089 
     39 O         -71.6331   25.4434  -77.0719 O.2       7 UNK        -0.5125 
     40 CA        -73.7120   24.2919  -76.8205 C.3       6 UNK         0.0408 
     41 CB        -73.4964   22.9194  -77.4838 C.3       6 UNK        -0.1791 
     42 N         -74.8448   24.2293  -75.8806 N.am      6 UNK        -0.4762 
     43 C         -74.9738   23.5418  -74.7342 C.2       6 UNK         0.5007 
     44 O         -74.0610   22.9073  -74.2058 O.2       6 UNK        -0.5032 
     45 CA        -76.3593   23.5687  -74.0566 C.3       5 UNK         0.0783 
     46 C46       -76.4849   24.8107  -73.1470 C.3       11 UNK        -0.0857 
     47 S47       -77.8782   24.6826  -71.9780 S.3       11 UNK        -0.2512 
     48 C48       -77.1179   25.3111  -70.4429 C.3       11 UNK         0.0225 
     49 N         -77.4451   23.4867  -75.0402 N.am      5 UNK        -0.4615 
     50 C         -77.7120   22.3911  -75.7693 C.2       4 UNK         0.5053 
     51 O         -77.1372   21.3136  -75.6117 O.2       4 UNK        -0.5105 
     52 CA        -78.7871   22.5009  -76.8682 C.3       4 UNK         0.0263 
     53 CB        -80.1338   21.9670  -76.3537 C.3       4 UNK        -0.1981 
     54 N         -78.9769   23.8596  -77.3789 N.am      4 UNK        -0.4224 
     55 C         -78.0463   24.6010  -77.9974 C.2       3 UNK         0.4895 
     56 O         -76.9317   24.1804  -78.3044 O.2       3 UNK        -0.5091 
     57 CA        -78.3983   26.0708  -78.2945 C.3       3 UNK         0.0250 
     58 CB        -78.6363   26.2754  -79.7991 C.3       3 UNK        -0.1996 
     59 N         -79.5495   26.5957  -77.5498 N.am      3 UNK        -0.4254 
     60 C         -79.6446   26.6927  -76.2161 C.2       2 UNK         0.5004 
     61 O         -78.7783   26.2993  -75.4286 O.2       2 UNK        -0.5226 
     62 CA        -80.9649   27.2604  -75.6885 C.3       2 UNK         0.0269 
     63 CB        -82.0654   26.1840  -75.7010 C.3       2 UNK        -0.1926 
     64 N         -80.7845   27.7416  -74.3237 N.am      2 UNK        -0.4687 
     65 C         -81.3651   28.8358  -73.8144 C.2       1 UNK         0.5165 
     66 O         -82.1331   29.5595  -74.4509 O.2       1 UNK        -0.5079 
     67 H67       -80.3762   25.6444  -70.5300 H         1 UNK         0.0900 
     68 H68       -81.6509   25.9879  -69.3537 H         1 UNK         0.0900 
     69 H69       -81.9961   25.0077  -70.7814 H         1 UNK         0.0900 
     70 H70       -79.9002   27.7498  -71.3036 H         1 UNK         0.2959 
     71 H71       -81.9425   29.6924  -71.9546 H         1 UNK         0.1079 
     72 H72       -79.9208   30.9064  -73.0160 H         1 UNK         0.0837 
     73 H73       -78.9167   29.6184  -72.4425 H         1 UNK         0.0837 
     74 H74       -79.9004   29.2233  -69.0996 H         1 UNK         0.0685 
     75 H75       -78.7346   30.4098  -68.5763 H         1 UNK         0.0685 
     76 H76       -78.8486   27.1490  -69.4298 H         1 UNK         0.1434 
     77 H77       -75.1180   26.8417  -71.5167 H         1 UNK         0.1329 
     78 H78       -76.7858   30.6955  -70.6837 H         1 UNK         0.1335 
     79 H79       -73.8842   28.7754  -72.1183 H         1 UNK         0.0680 
     80 H80       -74.2611   30.2972  -71.3456 H         1 UNK         0.0680 
     81 H81       -77.0433   28.5576  -73.8549 H         1 UNK         0.1032 
     82 H82       -75.4816   27.8127  -74.0171 H         1 UNK         0.1032 
     83 H83       -76.5831   27.8012  -76.1498 H         1 UNK         0.0461 
     84 H84       -77.4621   31.4345  -77.5297 H         1 UNK         0.3453 
     85 H85       -75.8434   30.7767  -77.5422 H         1 UNK         0.3453 
     86 H86       -74.1199   29.3455  -75.9303 H         1 UNK         0.2984 
     87 H87       -72.8074   27.6623  -78.7507 H         1 UNK         0.0554 
     88 H88       -73.4151   29.8085  -79.7965 H         1 UNK         0.0847 
     89 H89       -71.7431   29.8560  -79.2627 H         1 UNK         0.0847 
     90 H90       -72.9917   30.6938  -78.3423 H         1 UNK         0.0847 
     91 H91       -71.5663   27.4750  -76.9742 H         1 UNK         0.3141 
     92 H92       -69.8292   28.7913  -75.3291 H         1 UNK         0.0743 
     93 H93       -70.5860   30.5932  -73.8086 H         1 UNK         0.0784 
     94 H94       -70.1568   29.1765  -72.8638 H         1 UNK         0.0784 
     95 H95       -71.8521   29.5657  -73.1533 H         1 UNK         0.0784 
     96 H96       -72.1131   27.0723  -74.5309 H         1 UNK         0.3213 
     97 H97       -70.0530   24.2328  -74.7776 H         1 UNK         0.0855 
     98 H98       -71.6784   25.1523  -72.3452 H         1 UNK         0.0814 
     99 H99       -69.9786   24.7022  -72.3139 H         1 UNK         0.0814 
    100 H100      -71.1920   23.4968  -72.7087 H         1 UNK         0.0814 
    101 H101      -72.7373   24.0696  -74.4830 H         1 UNK         0.3105 
    102 H102      -74.0314   24.9830  -77.6026 H         1 UNK         0.0547 
    103 H103      -74.4076   22.5701  -77.9702 H         1 UNK         0.0837 
    104 H104      -73.1904   22.1622  -76.7613 H         1 UNK         0.0837 
    105 H105      -72.7210   22.9712  -78.2493 H         1 UNK         0.0837 
    106 H106      -75.6773   24.6942  -76.2171 H         1 UNK         0.3020 
    107 H107      -76.4116   22.6778  -73.4257 H         1 UNK         0.1245 
    108 H108      -76.6089   25.7185  -73.7390 H         1 UNK         0.0781 
    109 H109      -75.5660   24.9362  -72.5735 H         1 UNK         0.0781 
    110 H110      -76.1408   24.8513  -70.2871 H         1 UNK         0.0836 
    111 H111      -77.7325   25.0006  -69.5966 H         1 UNK         0.0836 
    112 H112      -77.9777   24.3356  -75.1981 H         1 UNK         0.3022 
    113 H113      -78.4636   21.8765  -77.7036 H         1 UNK         0.0747 
    114 H114      -80.8859   21.9570  -77.1429 H         1 UNK         0.0793 
    115 H115      -80.0346   20.9428  -75.9911 H         1 UNK         0.0793 
    116 H116      -80.5180   22.5687  -75.5288 H         1 UNK         0.0793 
    117 H117      -79.8626   24.2972  -77.1751 H         1 UNK         0.3047 
    118 H118      -77.5311   26.6635  -78.0045 H         1 UNK         0.0822 
    119 H119      -78.7793   27.3293  -80.0387 H         1 UNK         0.0807 
    120 H120      -79.5111   25.7262  -80.1491 H         1 UNK         0.0807 
    121 H121      -77.7795   25.9299  -80.3797 H         1 UNK         0.0807 
    122 H122      -80.3225   26.9250  -78.1108 H         1 UNK         0.2946 
    123 H123      -81.2540   28.0907  -76.3376 H         1 UNK         0.1144 
    124 H124      -83.0110   26.5827  -75.3328 H         1 UNK         0.0793 
    125 H125      -81.7995   25.3299  -75.0765 H         1 UNK         0.0793 
    126 H126      -82.2457   25.8107  -76.7098 H         1 UNK         0.0793 
    127 H127      -80.1126   27.2246  -73.7719 H         1 UNK         0.2896 
@<TRIPOS>BOND
     1    1    2 1    
     2    1   67 1    
     3    1   68 1    
     4    1   69 1    
     5    2    3 2    
     6    2    4 am   BACKBONE|DICT|INTERRES
     7    4    5 1    
     8    4   70 1    
     9    5    6 1    
    10    5   65 1    
    11    5   71 1    
    12    6    7 1    
    13    6   72 1    
    14    6   73 1    
    15    7    8 1    
    16    8    9 1    
    17    8   74 1    
    18    8   75 1    
    19    9   10 ar   
    20    9   14 ar   
    21   10   11 ar   
    22   10   76 1    
    23   11   12 ar   
    24   11   48 1    
    25   12   13 ar   
    26   12   77 1    
    27   13   14 ar   
    28   13   15 1    
    29   14   78 1    
    30   15   16 1    
    31   15   79 1    
    32   15   80 1    
    33   16   17 1    
    34   17   18 1    
    35   17   81 1    
    36   17   82 1    
    37   18   19 1    
    38   18   22 1    
    39   18   83 1    
    40   19   20 am   BACKBONE|DICT|INTERRES
    41   19   21 2    
    42   20   84 1    
    43   20   85 1    
    44   22   23 am   BACKBONE|DICT|INTERRES
    45   22   86 1    
    46   23   24 2    
    47   23   25 1    
    48   25   26 1    
    49   25   27 1    
    50   25   87 1    
    51   26   88 1    
    52   26   89 1    
    53   26   90 1    
    54   27   28 am   BACKBONE|DICT|INTERRES
    55   27   91 1    
    56   28   29 2    
    57   28   30 1    
    58   30   31 1    
    59   30   32 1    
    60   30   92 1    
    61   31   93 1    
    62   31   94 1    
    63   31   95 1    
    64   32   33 am   BACKBONE|DICT|INTERRES
    65   32   96 1    
    66   33   34 2    
    67   33   35 1    
    68   35   36 1    
    69   35   37 1    
    70   35   97 1    
    71   36   98 1    
    72   36   99 1    
    73   36  100 1    
    74   37   38 am   BACKBONE|DICT|INTERRES
    75   37  101 1    
    76   38   39 2    
    77   38   40 1    
    78   40   41 1    
    79   40   42 1    
    80   40  102 1    
    81   41  103 1    
    82   41  104 1    
    83   41  105 1    
    84   42   43 am   BACKBONE|DICT|INTERRES
    85   42  106 1    
    86   43   44 2    
    87   43   45 1    
    88   45   46 1    
    89   45   49 1    
    90   45  107 1    
    91   46   47 1    
    92   46  108 1    
    93   46  109 1    
    94   47   48 1    
    95   48  110 1    
    96   48  111 1    
    97   49   50 am   BACKBONE|DICT|INTERRES
    98   49  112 1    
    99   50   51 2    
   100   50   52 1    
   101   52   53 1    
   102   52   54 1    
   103   52  113 1    
   104   53  114 1    
   105   53  115 1    
   106   53  116 1    
   107   54   55 am   BACKBONE|DICT|INTERRES
   108   54  117 1    
   109   55   56 2    
   110   55   57 1    
   111   57   58 1    
   112   57   59 1    
   113   57  118 1    
   114   58  119 1    
   115   58  120 1    
   116   58  121 1    
   117   59   60 am   BACKBONE|DICT|INTERRES
   118   59  122 1    
   119   60   61 2    
   120   60   62 1    
   121   62   63 1    
   122   62   64 1    
   123   62  123 1    
   124   63  124 1    
   125   63  125 1    
   126   63  126 1    
   127   64   65 am   BACKBONE|DICT|INTERRES
   128   64  127 1    
   129   65   66 2    
@<TRIPOS>SUBSTRUCTURE
     1 UNK         1 GROUP             0       ****    0 ROOT    
