@<TRIPOS>MOLECULE
3R135
127   129    1
SMALL
USER_CHARGES


@<TRIPOS>ATOM
      1 CA        -83.9012   27.4780  -71.0314 C.3       0 UNK        -0.1998 
      2 C         -83.4072   27.9002  -72.4069 C.2       0 UNK         0.4909 
      3 O         -84.2005   27.9780  -73.3453 O.2       0 UNK        -0.5240 
      4 N         -82.1022   28.1763  -72.5300 N.am      1 UNK        -0.4739 
      5 CA        -81.4424   28.5788  -73.7799 C.3       1 UNK         0.0864 
      6 C6        -80.0413   29.1857  -73.5225 C.3       11 UNK        -0.0881 
      7 S7        -80.1164   30.7625  -72.5981 S.3       11 UNK        -0.2682 
      8 C8        -79.8991   30.2643  -70.8552 C.3       11 UNK         0.0289 
      9 C9        -78.5145   29.6963  -70.5838 C.ar      11 UNK        -0.0687 
     10 C10       -78.3185   28.3143  -70.5364 C.ar      11 UNK        -0.0823 
     11 C11       -77.0396   27.7798  -70.3508 C.ar      11 UNK        -0.0830 
     12 C12       -75.9575   28.6465  -70.1626 C.ar      11 UNK        -0.1021 
     13 C13       -76.1475   30.0322  -70.1681 C.ar      11 UNK        -0.0753 
     14 C14       -77.4282   30.5510  -70.3808 C.ar      11 UNK        -0.0933 
     15 C15       -74.9767   30.9754  -69.9338 C.3       11 UNK         0.0166 
     16 S16       -74.4026   31.7490  -71.4785 S.3       11 UNK        -0.2615 
     17 C17       -73.5392   30.3607  -72.3024 C.3       11 UNK        -0.0865 
     18 CA        -74.2210   29.6556  -73.5285 C.3       10 UNK         0.0862 
     19 C         -75.4494   30.3638  -74.1804 C.2       10 UNK         0.5551 
     20 N         -76.6044   30.3162  -73.5319 N.am      10 UNK        -0.7319 
     21 O         -75.3853   30.9304  -75.2698 O.2       10 UNK        -0.5018 
     22 N         -73.2522   29.1910  -74.5351 N.am      10 UNK        -0.4509 
     23 C         -72.3898   29.9288  -75.2505 C.2       10 UNK         0.4899 
     24 O         -72.1973   31.1318  -75.0671 O.2       10 UNK        -0.4839 
     25 CA        -71.6304   29.2173  -76.3906 C.3       9 UNK         0.0222 
     26 CB        -70.2253   29.8092  -76.6358 C.3       9 UNK        -0.1966 
     27 N         -71.5828   27.7544  -76.2669 N.am      9 UNK        -0.4218 
     28 C         -70.9336   27.0242  -75.3444 C.2       9 UNK         0.5020 
     29 O         -70.2285   27.5139  -74.4609 O.2       9 UNK        -0.5274 
     30 CA        -71.1025   25.4908  -75.3946 C.3       8 UNK         0.0270 
     31 CB        -71.4544   24.9235  -74.0068 C.3       8 UNK        -0.1976 
     32 N         -72.1385   25.0758  -76.3430 N.am      8 UNK        -0.4313 
     33 C         -71.9270   24.6709  -77.6020 C.2       8 UNK         0.5041 
     34 O         -70.8076   24.5309  -78.0956 O.2       8 UNK        -0.5577 
     35 CA        -73.1698   24.3977  -78.4731 C.3       7 UNK         0.0284 
     36 CB        -73.4924   22.8950  -78.4829 C.3       7 UNK        -0.1958 
     37 N         -74.3651   25.1448  -78.0643 N.am      7 UNK        -0.4454 
     38 C         -74.4757   26.4810  -78.0570 C.2       7 UNK         0.5089 
     39 O         -73.5878   27.2406  -78.4434 O.2       7 UNK        -0.5125 
     40 CA        -75.7522   27.0716  -77.4309 C.3       6 UNK         0.0408 
     41 CB        -76.8960   27.1087  -78.4544 C.3       6 UNK        -0.1791 
     42 N         -76.1880   26.3606  -76.2237 N.am      6 UNK        -0.4762 
     43 C         -75.4425   26.1975  -75.1200 C.2       6 UNK         0.5007 
     44 O         -74.2945   26.6213  -75.0027 O.2       6 UNK        -0.5032 
     45 CA        -76.0596   25.3884  -73.9714 C.3       5 UNK         0.0783 
     46 C46       -77.0665   26.2552  -73.1835 C.3       11 UNK        -0.0857 
     47 S47       -77.7097   25.4071  -71.7039 S.3       11 UNK        -0.2512 
     48 C48       -76.8158   26.2690  -70.3616 C.3       11 UNK         0.0225 
     49 N         -76.6417   24.1509  -74.4916 N.am      5 UNK        -0.4615 
     50 C         -75.9217   23.0936  -74.8917 C.2       4 UNK         0.5053 
     51 O         -74.6987   23.0171  -74.7764 O.2       4 UNK        -0.5105 
     52 CA        -76.6876   21.9368  -75.5580 C.3       4 UNK         0.0263 
     53 CB        -77.1497   20.9209  -74.5015 C.3       4 UNK        -0.1981 
     54 N         -77.8432   22.3864  -76.3387 N.am      4 UNK        -0.4224 
     55 C         -77.7703   23.1438  -77.4434 C.2       3 UNK         0.4895 
     56 O         -76.7129   23.4962  -77.9640 O.2       3 UNK        -0.5091 
     57 CA        -79.1027   23.6384  -78.0346 C.3       3 UNK         0.0250 
     58 CB        -79.6601   22.6152  -79.0365 C.3       3 UNK        -0.1996 
     59 N         -80.1197   23.9406  -77.0197 N.am      3 UNK        -0.4254 
     60 C         -79.9771   24.8462  -76.0412 C.2       2 UNK         0.5004 
     61 O         -78.9604   25.5263  -75.8850 O.2       2 UNK        -0.5226 
     62 CA        -81.1315   24.9337  -75.0281 C.3       2 UNK         0.0269 
     63 CB        -81.0369   23.7722  -74.0234 C.3       2 UNK        -0.1926 
     64 N         -81.1598   26.1893  -74.2737 N.am      2 UNK        -0.4687 
     65 C         -81.3659   27.4110  -74.7881 C.2       1 UNK         0.5165 
     66 O         -81.5382   27.6321  -75.9879 O.2       1 UNK        -0.5079 
     67 H67       -83.0977   27.4618  -70.2953 H         1 UNK         0.0900 
     68 H68       -84.6679   28.1682  -70.6805 H         1 UNK         0.0900 
     69 H69       -84.3370   26.4804  -71.0797 H         1 UNK         0.0900 
     70 H70       -81.5051   28.1063  -71.7207 H         1 UNK         0.2959 
     71 H71       -82.0608   29.3495  -74.2464 H         1 UNK         0.1079 
     72 H72       -79.5490   29.4032  -74.4727 H         1 UNK         0.0837 
     73 H73       -79.3915   28.4733  -73.0157 H         1 UNK         0.0837 
     74 H74       -80.0579   31.1396  -70.2236 H         1 UNK         0.0685 
     75 H75       -80.6727   29.5504  -70.5725 H         1 UNK         0.0685 
     76 H76       -79.1594   27.6495  -70.6752 H         1 UNK         0.1434 
     77 H77       -74.9661   28.2434  -70.0067 H         1 UNK         0.1329 
     78 H78       -77.5760   31.6224  -70.4048 H         1 UNK         0.1335 
     79 H79       -75.2850   31.7628  -69.2444 H         1 UNK         0.0680 
     80 H80       -74.1474   30.4583  -69.4486 H         1 UNK         0.0680 
     81 H81       -72.5693   30.7673  -72.5860 H         1 UNK         0.1032 
     82 H82       -73.2920   29.6041  -71.5569 H         1 UNK         0.1032 
     83 H83       -74.6331   28.7245  -73.1369 H         1 UNK         0.0461 
     84 H84       -76.6629   29.9238  -72.6039 H         1 UNK         0.3453 
     85 H85       -77.4083   30.7714  -73.9325 H         1 UNK         0.3453 
     86 H86       -73.3751   28.2172  -74.8013 H         1 UNK         0.2984 
     87 H87       -72.2178   29.4090  -77.2894 H         1 UNK         0.0554 
     88 H88       -70.2868   30.8636  -76.9078 H         1 UNK         0.0847 
     89 H89       -69.7144   29.2968  -77.4508 H         1 UNK         0.0847 
     90 H90       -69.5955   29.7425  -75.7484 H         1 UNK         0.0847 
     91 H91       -72.1529   27.2609  -76.9457 H         1 UNK         0.3141 
     92 H92       -70.1392   25.0731  -75.6938 H         1 UNK         0.0743 
     93 H93       -72.3753   25.3553  -73.6139 H         1 UNK         0.0784 
     94 H94       -71.5828   23.8414  -74.0420 H         1 UNK         0.0784 
     95 H95       -70.6636   25.1312  -73.2849 H         1 UNK         0.0784 
     96 H96       -73.0937   25.1978  -76.0260 H         1 UNK         0.3213 
     97 H97       -72.9243   24.7029  -79.4924 H         1 UNK         0.0855 
     98 H98       -73.7845   22.5404  -77.4935 H         1 UNK         0.0814 
     99 H99       -72.6276   22.3099  -78.7987 H         1 UNK         0.0814 
    100 H100      -74.3054   22.6682  -79.1729 H         1 UNK         0.0814 
    101 H101      -75.1769   24.5926  -77.7946 H         1 UNK         0.3105 
    102 H102      -75.5300   28.0989  -77.1338 H         1 UNK         0.0547 
    103 H103      -76.6271   27.7235  -79.3142 H         1 UNK         0.0837 
    104 H104      -77.1328   26.1136  -78.8297 H         1 UNK         0.0837 
    105 H105      -77.8041   27.5310  -78.0234 H         1 UNK         0.0837 
    106 H106      -77.1384   25.9955  -76.2201 H         1 UNK         0.3020 
    107 H107      -75.2448   25.1229  -73.2932 H         1 UNK         0.1245 
    108 H108      -77.9179   26.5340  -73.8044 H         1 UNK         0.0781 
    109 H109      -76.6014   27.1974  -72.8920 H         1 UNK         0.0781 
    110 H110      -75.7533   26.0386  -70.4534 H         1 UNK         0.0836 
    111 H111      -77.1392   25.8597  -69.4039 H         1 UNK         0.0836 
    112 H112      -77.6361   24.1701  -74.6685 H         1 UNK         0.3022 
    113 H113      -75.9977   21.4349  -76.2400 H         1 UNK         0.0747 
    114 H114      -77.6250   20.0553  -74.9636 H         1 UNK         0.0793 
    115 H115      -76.3034   20.5516  -73.9204 H         1 UNK         0.0793 
    116 H116      -77.8595   21.3608  -73.7995 H         1 UNK         0.0793 
    117 H117      -78.7565   22.1378  -75.9887 H         1 UNK         0.3047 
    118 H118      -78.8979   24.5643  -78.5746 H         1 UNK         0.0822 
    119 H119      -80.5517   22.9939  -79.5367 H         1 UNK         0.0807 
    120 H120      -79.9199   21.6728  -78.5527 H         1 UNK         0.0807 
    121 H121      -78.9269   22.3914  -79.8130 H         1 UNK         0.0807 
    122 H122      -80.9794   23.4128  -77.0740 H         1 UNK         0.2946 
    123 H123      -82.0724   24.8573  -75.5776 H         1 UNK         0.1144 
    124 H124      -81.8719   23.7854  -73.3225 H         1 UNK         0.0793 
    125 H125      -80.1134   23.8152  -73.4436 H         1 UNK         0.0793 
    126 H126      -81.0610   22.8054  -74.5278 H         1 UNK         0.0793 
    127 H127      -81.0247   26.1155  -73.2768 H         1 UNK         0.2896 
@<TRIPOS>BOND
     1    1    2 1    
     2    1   67 1    
     3    1   68 1    
     4    1   69 1    
     5    2    3 2    
     6    2    4 am   BACKBONE|DICT|INTERRES
     7    4    5 1    
     8    4   70 1    
     9    5    6 1    
    10    5   65 1    
    11    5   71 1    
    12    6    7 1    
    13    6   72 1    
    14    6   73 1    
    15    7    8 1    
    16    8    9 1    
    17    8   74 1    
    18    8   75 1    
    19    9   10 ar   
    20    9   14 ar   
    21   10   11 ar   
    22   10   76 1    
    23   11   12 ar   
    24   11   48 1    
    25   12   13 ar   
    26   12   77 1    
    27   13   14 ar   
    28   13   15 1    
    29   14   78 1    
    30   15   16 1    
    31   15   79 1    
    32   15   80 1    
    33   16   17 1    
    34   17   18 1    
    35   17   81 1    
    36   17   82 1    
    37   18   19 1    
    38   18   22 1    
    39   18   83 1    
    40   19   20 am   BACKBONE|DICT|INTERRES
    41   19   21 2    
    42   20   84 1    
    43   20   85 1    
    44   22   23 am   BACKBONE|DICT|INTERRES
    45   22   86 1    
    46   23   24 2    
    47   23   25 1    
    48   25   26 1    
    49   25   27 1    
    50   25   87 1    
    51   26   88 1    
    52   26   89 1    
    53   26   90 1    
    54   27   28 am   BACKBONE|DICT|INTERRES
    55   27   91 1    
    56   28   29 2    
    57   28   30 1    
    58   30   31 1    
    59   30   32 1    
    60   30   92 1    
    61   31   93 1    
    62   31   94 1    
    63   31   95 1    
    64   32   33 am   BACKBONE|DICT|INTERRES
    65   32   96 1    
    66   33   34 2    
    67   33   35 1    
    68   35   36 1    
    69   35   37 1    
    70   35   97 1    
    71   36   98 1    
    72   36   99 1    
    73   36  100 1    
    74   37   38 am   BACKBONE|DICT|INTERRES
    75   37  101 1    
    76   38   39 2    
    77   38   40 1    
    78   40   41 1    
    79   40   42 1    
    80   40  102 1    
    81   41  103 1    
    82   41  104 1    
    83   41  105 1    
    84   42   43 am   BACKBONE|DICT|INTERRES
    85   42  106 1    
    86   43   44 2    
    87   43   45 1    
    88   45   46 1    
    89   45   49 1    
    90   45  107 1    
    91   46   47 1    
    92   46  108 1    
    93   46  109 1    
    94   47   48 1    
    95   48  110 1    
    96   48  111 1    
    97   49   50 am   BACKBONE|DICT|INTERRES
    98   49  112 1    
    99   50   51 2    
   100   50   52 1    
   101   52   53 1    
   102   52   54 1    
   103   52  113 1    
   104   53  114 1    
   105   53  115 1    
   106   53  116 1    
   107   54   55 am   BACKBONE|DICT|INTERRES
   108   54  117 1    
   109   55   56 2    
   110   55   57 1    
   111   57   58 1    
   112   57   59 1    
   113   57  118 1    
   114   58  119 1    
   115   58  120 1    
   116   58  121 1    
   117   59   60 am   BACKBONE|DICT|INTERRES
   118   59  122 1    
   119   60   61 2    
   120   60   62 1    
   121   62   63 1    
   122   62   64 1    
   123   62  123 1    
   124   63  124 1    
   125   63  125 1    
   126   63  126 1    
   127   64   65 am   BACKBONE|DICT|INTERRES
   128   64  127 1    
   129   65   66 2    
@<TRIPOS>SUBSTRUCTURE
     1 UNK         1 GROUP             0       ****    0 ROOT    
