@<TRIPOS>MOLECULE
3R135
127   129    1
SMALL
USER_CHARGES


@<TRIPOS>ATOM
      1 CA        -81.9671   28.3313  -78.4333 C.3       0 UNK        -0.1998 
      2 C         -81.5868   27.6148  -77.1462 C.2       0 UNK         0.4909 
      3 O         -81.1042   26.4847  -77.1986 O.2       0 UNK        -0.5240 
      4 N         -81.7926   28.2715  -75.9975 N.am      1 UNK        -0.4739 
      5 CA        -81.5098   27.7581  -74.6509 C.3       1 UNK         0.0864 
      6 C6        -81.6519   28.8748  -73.5888 C.3       11 UNK        -0.0881 
      7 S7        -80.3802   30.1712  -73.7995 S.3       11 UNK        -0.2682 
      8 C8        -79.6868   30.3198  -72.1209 C.3       11 UNK         0.0289 
      9 C9        -78.5031   29.3897  -71.8780 C.ar      11 UNK        -0.0687 
     10 C10       -78.7053   28.0231  -71.6613 C.ar      11 UNK        -0.0823 
     11 C11       -77.6310   27.1830  -71.3569 C.ar      11 UNK        -0.0830 
     12 C12       -76.3454   27.7229  -71.2666 C.ar      11 UNK        -0.1021 
     13 C13       -76.1192   29.0854  -71.4835 C.ar      11 UNK        -0.0753 
     14 C14       -77.2068   29.9123  -71.7956 C.ar      11 UNK        -0.0933 
     15 C15       -74.6989   29.6197  -71.2888 C.3       11 UNK         0.0166 
     16 S16       -74.3042   31.1964  -72.1230 S.3       11 UNK        -0.2615 
     17 C17       -74.1983   30.6788  -73.8715 C.3       11 UNK        -0.0865 
     18 CA        -72.7749   30.5800  -74.5013 C.3       10 UNK         0.0862 
     19 C         -71.9039   31.8665  -74.3704 C.2       10 UNK         0.5551 
     20 N         -70.5931   31.7655  -74.1912 N.am      10 UNK        -0.7319 
     21 O         -72.4155   32.9772  -74.4916 O.2       10 UNK        -0.5018 
     22 N         -72.1235   29.2853  -74.2351 N.am      10 UNK        -0.4509 
     23 C         -71.5583   28.8552  -73.0988 C.2       10 UNK         0.4899 
     24 O         -71.3641   29.5628  -72.1114 O.2       10 UNK        -0.4839 
     25 CA        -71.1363   27.3757  -73.0407 C.3       9 UNK         0.0222 
     26 CB        -71.7694   26.6680  -71.8280 C.3       9 UNK        -0.1966 
     27 N         -71.5127   26.6457  -74.2559 N.am      9 UNK        -0.4218 
     28 C         -70.6520   26.0368  -75.0818 C.2       9 UNK         0.5020 
     29 O         -69.4330   26.0100  -74.9054 O.2       9 UNK        -0.5274 
     30 CA        -71.2346   25.3280  -76.3168 C.3       8 UNK         0.0270 
     31 CB        -71.5744   23.8643  -75.9917 C.3       8 UNK        -0.1976 
     32 N         -72.4074   25.9801  -76.9063 N.am      8 UNK        -0.4313 
     33 C         -72.3972   27.1807  -77.5041 C.2       8 UNK         0.5041 
     34 O         -71.4283   27.9397  -77.5036 O.2       8 UNK        -0.5577 
     35 CA        -73.6832   27.6068  -78.2240 C.3       7 UNK         0.0284 
     36 CB        -73.8853   26.7920  -79.5131 C.3       7 UNK        -0.1958 
     37 N         -74.8380   27.4309  -77.3478 N.am      7 UNK        -0.4454 
     38 C         -75.4417   28.4207  -76.6787 C.2       7 UNK         0.5089 
     39 O         -75.1615   29.6113  -76.8150 O.2       7 UNK        -0.5125 
     40 CA        -76.5490   28.0249  -75.6840 C.3       6 UNK         0.0408 
     41 CB        -77.9209   28.1736  -76.3528 C.3       6 UNK        -0.1791 
     42 N         -76.4167   26.6718  -75.1334 N.am      6 UNK        -0.4762 
     43 C         -75.3634   26.2130  -74.4364 C.2       6 UNK         0.5007 
     44 O         -74.3826   26.8965  -74.1433 O.2       6 UNK        -0.5032 
     45 CA        -75.3486   24.7069  -74.0940 C.3       5 UNK         0.0783 
     46 C46       -75.9305   24.4220  -72.6869 C.3       11 UNK        -0.0857 
     47 S47       -77.7412   24.6693  -72.5506 S.3       11 UNK        -0.2512 
     48 C48       -77.8729   25.7085  -71.0616 C.3       11 UNK         0.0225 
     49 N         -75.9841   23.8701  -75.1164 N.am      5 UNK        -0.4615 
     50 C         -75.7330   23.8712  -76.4326 C.2       4 UNK         0.5053 
     51 O         -74.8121   24.5098  -76.9444 O.2       4 UNK        -0.5105 
     52 CA        -76.6899   23.0747  -77.3446 C.3       4 UNK         0.0263 
     53 CB        -75.9441   21.9010  -77.9997 C.3       4 UNK        -0.1981 
     54 N         -77.9084   22.5662  -76.6948 N.am      4 UNK        -0.4224 
     55 C         -78.8468   23.3009  -76.0782 C.2       3 UNK         0.4895 
     56 O         -78.7945   24.5309  -75.9822 O.2       3 UNK        -0.5091 
     57 CA        -79.9879   22.5255  -75.3975 C.3       3 UNK         0.0250 
     58 CB        -79.4535   21.3565  -74.5367 C.3       3 UNK        -0.1996 
     59 N         -80.7318   23.4654  -74.5652 N.am      3 UNK        -0.4254 
     60 C         -81.9015   23.2599  -73.9475 C.2       2 UNK         0.5004 
     61 O         -82.5613   22.2252  -74.0517 O.2       2 UNK        -0.5226 
     62 CA        -82.4195   24.3925  -73.0426 C.3       2 UNK         0.0269 
     63 CB        -82.0823   24.0907  -71.5726 C.3       2 UNK        -0.1926 
     64 N         -81.8405   25.6892  -73.4016 N.am      2 UNK        -0.4687 
     65 C         -82.3743   26.5319  -74.2949 C.2       1 UNK         0.5165 
     66 O         -83.4867   26.3782  -74.8066 O.2       1 UNK        -0.5079 
     67 H67       -82.7202   27.7576  -78.9728 H         1 UNK         0.0900 
     68 H68       -82.3698   29.3261  -78.2433 H         1 UNK         0.0900 
     69 H69       -81.0931   28.4363  -79.0755 H         1 UNK         0.0900 
     70 H70       -82.1960   29.1966  -76.0262 H         1 UNK         0.2959 
     71 H71       -80.4795   27.4039  -74.6437 H         1 UNK         0.1079 
     72 H72       -82.6365   29.3417  -73.6549 H         1 UNK         0.0837 
     73 H73       -81.5913   28.4672  -72.5794 H         1 UNK         0.0837 
     74 H74       -79.3792   31.3566  -71.9772 H         1 UNK         0.0685 
     75 H75       -80.4618   30.1389  -71.3747 H         1 UNK         0.0685 
     76 H76       -79.7035   27.6144  -71.6965 H         1 UNK         0.1434 
     77 H77       -75.5145   27.0852  -71.0005 H         1 UNK         0.1329 
     78 H78       -77.0555   30.9727  -71.9387 H         1 UNK         0.1335 
     79 H79       -74.5327   29.7542  -70.2195 H         1 UNK         0.0680 
     80 H80       -73.9834   28.8664  -71.6156 H         1 UNK         0.0680 
     81 H81       -74.7057   29.7218  -73.9805 H         1 UNK         0.1032 
     82 H82       -74.7952   31.3850  -74.4510 H         1 UNK         0.1032 
     83 H83       -72.9445   30.5285  -75.5770 H         1 UNK         0.0461 
     84 H84       -70.0342   32.6015  -74.1269 H         1 UNK         0.3453 
     85 H85       -70.1686   30.8596  -74.0737 H         1 UNK         0.3453 
     86 H86       -72.1550   28.6343  -75.0056 H         1 UNK         0.2984 
     87 H87       -70.0530   27.3706  -72.9070 H         1 UNK         0.0554 
     88 H88       -71.4971   27.1632  -70.8950 H         1 UNK         0.0847 
     89 H89       -71.4314   25.6344  -71.7535 H         1 UNK         0.0847 
     90 H90       -72.8580   26.6598  -71.8874 H         1 UNK         0.0847 
     91 H91       -72.5095   26.6238  -74.4589 H         1 UNK         0.3141 
     92 H92       -70.4535   25.3254  -77.0802 H         1 UNK         0.0743 
     93 H93       -72.3629   23.7870  -75.2441 H         1 UNK         0.0784 
     94 H94       -71.9038   23.3262  -76.8810 H         1 UNK         0.0784 
     95 H95       -70.7021   23.3387  -75.6006 H         1 UNK         0.0784 
     96 H96       -73.2572   25.4197  -76.9567 H         1 UNK         0.3213 
     97 H97       -73.5755   28.6564  -78.5068 H         1 UNK         0.0855 
     98 H98       -74.0106   25.7274  -79.3120 H         1 UNK         0.0814 
     99 H99       -73.0287   26.8997  -80.1799 H         1 UNK         0.0814 
    100 H100      -74.7649   27.1327  -80.0594 H         1 UNK         0.0814 
    101 H101      -75.1172   26.4755  -77.1533 H         1 UNK         0.3105 
    102 H102      -76.5122   28.7230  -74.8470 H         1 UNK         0.0547 
    103 H103      -78.0144   29.1335  -76.8628 H         1 UNK         0.0837 
    104 H104      -78.1086   27.3887  -77.0867 H         1 UNK         0.0837 
    105 H105      -78.7093   28.1391  -75.6084 H         1 UNK         0.0837 
    106 H106      -77.1722   26.0244  -75.3292 H         1 UNK         0.3020 
    107 H107      -74.2973   24.4164  -74.0724 H         1 UNK         0.1245 
    108 H108      -75.4073   25.0146  -71.9364 H         1 UNK         0.0781 
    109 H109      -75.7259   23.3844  -72.4183 H         1 UNK         0.0781 
    110 H110      -77.1802   25.3522  -70.2976 H         1 UNK         0.0836 
    111 H111      -78.8699   25.5785  -70.6381 H         1 UNK         0.0836 
    112 H112      -76.7808   23.3395  -74.7980 H         1 UNK         0.3022 
    113 H113      -77.0072   23.7602  -78.1328 H         1 UNK         0.0747 
    114 H114      -76.5700   21.3904  -78.7319 H         1 UNK         0.0793 
    115 H115      -75.0533   22.2469  -78.5266 H         1 UNK         0.0793 
    116 H116      -75.6203   21.1665  -77.2613 H         1 UNK         0.0793 
    117 H117      -78.0284   21.5636  -76.7108 H         1 UNK         0.3047 
    118 H118      -80.6515   22.1432  -76.1754 H         1 UNK         0.0822 
    119 H119      -78.9393   20.6092  -75.1413 H         1 UNK         0.0807 
    120 H120      -80.2593   20.8322  -74.0235 H         1 UNK         0.0807 
    121 H121      -78.7534   21.7063  -73.7766 H         1 UNK         0.0807 
    122 H122      -80.2848   24.3713  -74.4977 H         1 UNK         0.2946 
    123 H123      -83.5068   24.4281  -73.1461 H         1 UNK         0.1144 
    124 H124      -82.4741   24.8618  -70.9091 H         1 UNK         0.0793 
    125 H125      -81.0058   24.0209  -71.4097 H         1 UNK         0.0793 
    126 H126      -82.5208   23.1421  -71.2594 H         1 UNK         0.0793 
    127 H127      -80.9354   25.8978  -73.0059 H         1 UNK         0.2896 
@<TRIPOS>BOND
     1    1    2 1    
     2    1   67 1    
     3    1   68 1    
     4    1   69 1    
     5    2    3 2    
     6    2    4 am   BACKBONE|DICT|INTERRES
     7    4    5 1    
     8    4   70 1    
     9    5    6 1    
    10    5   65 1    
    11    5   71 1    
    12    6    7 1    
    13    6   72 1    
    14    6   73 1    
    15    7    8 1    
    16    8    9 1    
    17    8   74 1    
    18    8   75 1    
    19    9   10 ar   
    20    9   14 ar   
    21   10   11 ar   
    22   10   76 1    
    23   11   12 ar   
    24   11   48 1    
    25   12   13 ar   
    26   12   77 1    
    27   13   14 ar   
    28   13   15 1    
    29   14   78 1    
    30   15   16 1    
    31   15   79 1    
    32   15   80 1    
    33   16   17 1    
    34   17   18 1    
    35   17   81 1    
    36   17   82 1    
    37   18   19 1    
    38   18   22 1    
    39   18   83 1    
    40   19   20 am   BACKBONE|DICT|INTERRES
    41   19   21 2    
    42   20   84 1    
    43   20   85 1    
    44   22   23 am   BACKBONE|DICT|INTERRES
    45   22   86 1    
    46   23   24 2    
    47   23   25 1    
    48   25   26 1    
    49   25   27 1    
    50   25   87 1    
    51   26   88 1    
    52   26   89 1    
    53   26   90 1    
    54   27   28 am   BACKBONE|DICT|INTERRES
    55   27   91 1    
    56   28   29 2    
    57   28   30 1    
    58   30   31 1    
    59   30   32 1    
    60   30   92 1    
    61   31   93 1    
    62   31   94 1    
    63   31   95 1    
    64   32   33 am   BACKBONE|DICT|INTERRES
    65   32   96 1    
    66   33   34 2    
    67   33   35 1    
    68   35   36 1    
    69   35   37 1    
    70   35   97 1    
    71   36   98 1    
    72   36   99 1    
    73   36  100 1    
    74   37   38 am   BACKBONE|DICT|INTERRES
    75   37  101 1    
    76   38   39 2    
    77   38   40 1    
    78   40   41 1    
    79   40   42 1    
    80   40  102 1    
    81   41  103 1    
    82   41  104 1    
    83   41  105 1    
    84   42   43 am   BACKBONE|DICT|INTERRES
    85   42  106 1    
    86   43   44 2    
    87   43   45 1    
    88   45   46 1    
    89   45   49 1    
    90   45  107 1    
    91   46   47 1    
    92   46  108 1    
    93   46  109 1    
    94   47   48 1    
    95   48  110 1    
    96   48  111 1    
    97   49   50 am   BACKBONE|DICT|INTERRES
    98   49  112 1    
    99   50   51 2    
   100   50   52 1    
   101   52   53 1    
   102   52   54 1    
   103   52  113 1    
   104   53  114 1    
   105   53  115 1    
   106   53  116 1    
   107   54   55 am   BACKBONE|DICT|INTERRES
   108   54  117 1    
   109   55   56 2    
   110   55   57 1    
   111   57   58 1    
   112   57   59 1    
   113   57  118 1    
   114   58  119 1    
   115   58  120 1    
   116   58  121 1    
   117   59   60 am   BACKBONE|DICT|INTERRES
   118   59  122 1    
   119   60   61 2    
   120   60   62 1    
   121   62   63 1    
   122   62   64 1    
   123   62  123 1    
   124   63  124 1    
   125   63  125 1    
   126   63  126 1    
   127   64   65 am   BACKBONE|DICT|INTERRES
   128   64  127 1    
   129   65   66 2    
@<TRIPOS>SUBSTRUCTURE
     1 UNK         1 GROUP             0       ****    0 ROOT    
