@<TRIPOS>MOLECULE
3R135
127   129    1
SMALL
USER_CHARGES


@<TRIPOS>ATOM
      1 CA        -84.6701   25.8167  -73.1134 C.3       0 UNK        -0.1998 
      2 C         -83.3730   26.1992  -73.8088 C.2       0 UNK         0.4909 
      3 O         -82.3808   25.4828  -73.6885 O.2       0 UNK        -0.5240 
      4 N         -83.3792   27.3084  -74.5619 N.am      1 UNK        -0.4739 
      5 CA        -82.2278   27.9182  -75.2561 C.3       1 UNK         0.0864 
      6 C6        -81.0830   28.3425  -74.2932 C.3       11 UNK        -0.0881 
      7 S7        -81.6300   29.4031  -72.9131 S.3       11 UNK        -0.2682 
      8 C8        -80.1941   30.5186  -72.7207 C.3       11 UNK         0.0289 
      9 C9        -78.9540   29.9350  -72.0326 C.ar      11 UNK        -0.0687 
     10 C10       -78.8941   28.6354  -71.5064 C.ar      11 UNK        -0.0823 
     11 C11       -77.7448   28.1812  -70.8480 C.ar      11 UNK        -0.0830 
     12 C12       -76.6460   29.0334  -70.7118 C.ar      11 UNK        -0.1021 
     13 C13       -76.6883   30.3291  -71.2313 C.ar      11 UNK        -0.0753 
     14 C14       -77.8380   30.7667  -71.8946 C.ar      11 UNK        -0.0933 
     15 C15       -75.5134   31.2769  -71.0415 C.3       11 UNK         0.0166 
     16 S16       -74.3111   31.1443  -72.3981 S.3       11 UNK        -0.2615 
     17 C17       -73.3357   29.6926  -71.8735 C.3       11 UNK        -0.0865 
     18 CA        -71.9898   29.5830  -72.6401 C.3       10 UNK         0.0862 
     19 C         -71.0720   28.4618  -72.0694 C.2       10 UNK         0.5551 
     20 N         -70.3798   27.6806  -72.8920 N.am      10 UNK        -0.7319 
     21 O         -70.9673   28.3066  -70.8551 O.2       10 UNK        -0.5018 
     22 N         -72.2146   29.4425  -74.0850 N.am      10 UNK        -0.4509 
     23 C         -71.6432   30.1818  -75.0409 C.2       10 UNK         0.4899 
     24 O         -70.8751   31.1198  -74.8188 O.2       10 UNK        -0.4839 
     25 CA        -71.9902   29.7977  -76.4929 C.3       9 UNK         0.0222 
     26 CB        -71.0315   30.4247  -77.5276 C.3       9 UNK        -0.1966 
     27 N         -72.1007   28.3478  -76.7018 N.am      9 UNK        -0.4218 
     28 C         -71.1492   27.4216  -76.4975 C.2       9 UNK         0.5020 
     29 O         -70.0291   27.6909  -76.0599 O.2       9 UNK        -0.5274 
     30 CA        -71.4863   25.9451  -76.7953 C.3       8 UNK         0.0270 
     31 CB        -71.0840   25.0432  -75.6143 C.3       8 UNK        -0.1976 
     32 N         -72.8990   25.7120  -77.1040 N.am      8 UNK        -0.4313 
     33 C         -73.4888   25.9250  -78.2879 C.2       8 UNK         0.5041 
     34 O         -72.8835   26.2756  -79.3009 O.2       8 UNK        -0.5577 
     35 CA        -75.0229   25.7831  -78.3311 C.3       7 UNK         0.0284 
     36 CB        -75.4274   24.3274  -78.6060 C.3       7 UNK        -0.1958 
     37 N         -75.6734   26.2622  -77.1044 N.am      7 UNK        -0.4454 
     38 C         -75.6171   27.5308  -76.6697 C.2       7 UNK         0.5089 
     39 O         -75.0562   28.4378  -77.2844 O.2       7 UNK        -0.5125 
     40 CA        -76.2301   27.8332  -75.2955 C.3       6 UNK         0.0408 
     41 CB        -77.7270   28.1282  -75.4079 C.3       6 UNK        -0.1791 
     42 N         -76.0251   26.7446  -74.3448 N.am      6 UNK        -0.4762 
     43 C         -74.8485   26.4467  -73.7832 C.2       6 UNK         0.5007 
     44 O         -73.8056   27.0585  -74.0156 O.2       6 UNK        -0.5032 
     45 CA        -74.8287   25.2248  -72.8449 C.3       5 UNK         0.0783 
     46 C46       -75.4624   25.5418  -71.4630 C.3       11 UNK        -0.0857 
     47 S47       -77.2939   25.5070  -71.4571 S.3       11 UNK        -0.2512 
     48 C48       -77.7151   26.7876  -70.2362 C.3       11 UNK         0.0225 
     49 N         -75.4279   24.0394  -73.4673 N.am      5 UNK        -0.4615 
     50 C         -75.0263   23.4690  -74.6098 C.2       4 UNK         0.5053 
     51 O         -74.0452   23.8381  -75.2508 O.2       4 UNK        -0.5105 
     52 CA        -75.8794   22.3107  -75.1524 C.3       4 UNK         0.0263 
     53 CB        -75.3581   20.9693  -74.6132 C.3       4 UNK        -0.1981 
     54 N         -77.3145   22.4230  -74.8726 N.am      4 UNK        -0.4224 
     55 C         -78.1116   23.4447  -75.2194 C.2       3 UNK         0.4895 
     56 O         -77.7158   24.4835  -75.7567 O.2       3 UNK        -0.5091 
     57 CA        -79.5938   23.2681  -74.8425 C.3       3 UNK         0.0250 
     58 CB        -79.8063   23.6014  -73.3570 C.3       3 UNK        -0.1996 
     59 N         -80.5198   24.0728  -75.6440 N.am      3 UNK        -0.4254 
     60 C         -80.6952   23.9774  -76.9721 C.2       2 UNK         0.5004 
     61 O         -80.0900   23.1733  -77.6831 O.2       2 UNK        -0.5226 
     62 CA        -81.7505   24.8946  -77.6269 C.3       2 UNK         0.0269 
     63 CB        -82.9316   24.0657  -78.1607 C.3       2 UNK        -0.1926 
     64 N         -82.2714   25.9126  -76.7114 N.am      2 UNK        -0.4687 
     65 C         -81.6622   27.0704  -76.4241 C.2       1 UNK         0.5165 
     66 O         -80.6773   27.4757  -77.0419 O.2       1 UNK        -0.5079 
     67 H67       -84.9925   24.8278  -73.4378 H         1 UNK         0.0900 
     68 H68       -85.4717   26.5235  -73.3269 H         1 UNK         0.0900 
     69 H69       -84.5200   25.7896  -72.0346 H         1 UNK         0.0900 
     70 H70       -84.2389   27.8351  -74.6362 H         1 UNK         0.2959 
     71 H71       -82.6135   28.8257  -75.7233 H         1 UNK         0.1079 
     72 H72       -80.5739   27.4696  -73.8806 H         1 UNK         0.0837 
     73 H73       -80.3338   28.8977  -74.8570 H         1 UNK         0.0837 
     74 H74       -80.5272   31.3777  -72.1368 H         1 UNK         0.0685 
     75 H75       -79.9137   30.9103  -73.6996 H         1 UNK         0.0685 
     76 H76       -79.7415   27.9702  -71.5863 H         1 UNK         0.1434 
     77 H77       -75.7640   28.6965  -70.1853 H         1 UNK         0.1329 
     78 H78       -77.8714   31.7736  -72.2886 H         1 UNK         0.1335 
     79 H79       -75.8744   32.3057  -70.9996 H         1 UNK         0.0680 
     80 H80       -75.0237   31.0935  -70.0840 H         1 UNK         0.0680 
     81 H81       -73.1533   29.7746  -70.8006 H         1 UNK         0.1032 
     82 H82       -73.9365   28.7941  -72.0144 H         1 UNK         0.1032 
     83 H83       -71.4425   30.5078  -72.4502 H         1 UNK         0.0461 
     84 H84       -70.4181   27.8208  -73.8930 H         1 UNK         0.3453 
     85 H85       -69.7836   26.9667  -72.5059 H         1 UNK         0.3453 
     86 H86       -72.8029   28.6544  -74.3431 H         1 UNK         0.2984 
     87 H87       -72.9845   30.2053  -76.6795 H         1 UNK         0.0554 
     88 H88       -71.3162   30.1571  -78.5451 H         1 UNK         0.0847 
     89 H89       -70.0012   30.1032  -77.3715 H         1 UNK         0.0847 
     90 H90       -71.0451   31.5135  -77.4651 H         1 UNK         0.0847 
     91 H91       -73.0092   28.0358  -77.0266 H         1 UNK         0.3141 
     92 H92       -70.8896   25.6521  -77.6614 H         1 UNK         0.0743 
     93 H93       -70.0187   25.1259  -75.3955 H         1 UNK         0.0784 
     94 H94       -71.6265   25.3081  -74.7056 H         1 UNK         0.0784 
     95 H95       -71.2861   23.9939  -75.8301 H         1 UNK         0.0784 
     96 H96       -73.4640   25.3432  -76.3426 H         1 UNK         0.3213 
     97 H97       -75.3908   26.3991  -79.1545 H         1 UNK         0.0855 
     98 H98       -75.0887   24.0135  -79.5941 H         1 UNK         0.0814 
     99 H99       -76.5097   24.1967  -78.5750 H         1 UNK         0.0814 
    100 H100      -74.9821   23.6453  -77.8835 H         1 UNK         0.0814 
    101 H101      -76.1992   25.5874  -76.5557 H         1 UNK         0.3105 
    102 H102      -75.7407   28.7268  -74.9004 H         1 UNK         0.0547 
    103 H103      -78.2875   27.2552  -75.7448 H         1 UNK         0.0837 
    104 H104      -78.1238   28.4352  -74.4414 H         1 UNK         0.0837 
    105 H105      -77.9194   28.9369  -76.1140 H         1 UNK         0.0837 
    106 H106      -76.8217   26.1577  -74.1363 H         1 UNK         0.3020 
    107 H107      -73.7741   24.9929  -72.6783 H         1 UNK         0.1245 
    108 H108      -75.1042   26.5008  -71.0850 H         1 UNK         0.0781 
    109 H109      -75.1250   24.8004  -70.7371 H         1 UNK         0.0781 
    110 H110      -77.0172   26.7440  -69.3986 H         1 UNK         0.0836 
    111 H111      -78.6964   26.5573  -69.8186 H         1 UNK         0.0836 
    112 H112      -76.2586   23.6837  -73.0175 H         1 UNK         0.3022 
    113 H113      -75.7682   22.3008  -76.2368 H         1 UNK         0.0747 
    114 H114      -75.8765   20.1271  -75.0718 H         1 UNK         0.0793 
    115 H115      -74.2955   20.8484  -74.8300 H         1 UNK         0.0793 
    116 H116      -75.4805   20.8926  -73.5320 H         1 UNK         0.0793 
    117 H117      -77.7361   21.6272  -74.4151 H         1 UNK         0.3047 
    118 H118      -79.8572   22.2208  -75.0044 H         1 UNK         0.0822 
    119 H119      -79.1170   23.0507  -72.7158 H         1 UNK         0.0807 
    120 H120      -80.8155   23.3436  -73.0355 H         1 UNK         0.0807 
    121 H121      -79.6579   24.6642  -73.1617 H         1 UNK         0.0807 
    122 H122      -81.0867   24.7376  -75.1287 H         1 UNK         0.2946 
    123 H123      -81.2663   25.3876  -78.4732 H         1 UNK         0.1144 
    124 H124      -82.5925   23.3187  -78.8799 H         1 UNK         0.0793 
    125 H125      -83.6599   24.6959  -78.6715 H         1 UNK         0.0793 
    126 H126      -83.4479   23.5357  -77.3593 H         1 UNK         0.0793 
    127 H127      -83.0709   25.6549  -76.1504 H         1 UNK         0.2896 
@<TRIPOS>BOND
     1    1    2 1    
     2    1   67 1    
     3    1   68 1    
     4    1   69 1    
     5    2    3 2    
     6    2    4 am   BACKBONE|DICT|INTERRES
     7    4    5 1    
     8    4   70 1    
     9    5    6 1    
    10    5   65 1    
    11    5   71 1    
    12    6    7 1    
    13    6   72 1    
    14    6   73 1    
    15    7    8 1    
    16    8    9 1    
    17    8   74 1    
    18    8   75 1    
    19    9   10 ar   
    20    9   14 ar   
    21   10   11 ar   
    22   10   76 1    
    23   11   12 ar   
    24   11   48 1    
    25   12   13 ar   
    26   12   77 1    
    27   13   14 ar   
    28   13   15 1    
    29   14   78 1    
    30   15   16 1    
    31   15   79 1    
    32   15   80 1    
    33   16   17 1    
    34   17   18 1    
    35   17   81 1    
    36   17   82 1    
    37   18   19 1    
    38   18   22 1    
    39   18   83 1    
    40   19   20 am   BACKBONE|DICT|INTERRES
    41   19   21 2    
    42   20   84 1    
    43   20   85 1    
    44   22   23 am   BACKBONE|DICT|INTERRES
    45   22   86 1    
    46   23   24 2    
    47   23   25 1    
    48   25   26 1    
    49   25   27 1    
    50   25   87 1    
    51   26   88 1    
    52   26   89 1    
    53   26   90 1    
    54   27   28 am   BACKBONE|DICT|INTERRES
    55   27   91 1    
    56   28   29 2    
    57   28   30 1    
    58   30   31 1    
    59   30   32 1    
    60   30   92 1    
    61   31   93 1    
    62   31   94 1    
    63   31   95 1    
    64   32   33 am   BACKBONE|DICT|INTERRES
    65   32   96 1    
    66   33   34 2    
    67   33   35 1    
    68   35   36 1    
    69   35   37 1    
    70   35   97 1    
    71   36   98 1    
    72   36   99 1    
    73   36  100 1    
    74   37   38 am   BACKBONE|DICT|INTERRES
    75   37  101 1    
    76   38   39 2    
    77   38   40 1    
    78   40   41 1    
    79   40   42 1    
    80   40  102 1    
    81   41  103 1    
    82   41  104 1    
    83   41  105 1    
    84   42   43 am   BACKBONE|DICT|INTERRES
    85   42  106 1    
    86   43   44 2    
    87   43   45 1    
    88   45   46 1    
    89   45   49 1    
    90   45  107 1    
    91   46   47 1    
    92   46  108 1    
    93   46  109 1    
    94   47   48 1    
    95   48  110 1    
    96   48  111 1    
    97   49   50 am   BACKBONE|DICT|INTERRES
    98   49  112 1    
    99   50   51 2    
   100   50   52 1    
   101   52   53 1    
   102   52   54 1    
   103   52  113 1    
   104   53  114 1    
   105   53  115 1    
   106   53  116 1    
   107   54   55 am   BACKBONE|DICT|INTERRES
   108   54  117 1    
   109   55   56 2    
   110   55   57 1    
   111   57   58 1    
   112   57   59 1    
   113   57  118 1    
   114   58  119 1    
   115   58  120 1    
   116   58  121 1    
   117   59   60 am   BACKBONE|DICT|INTERRES
   118   59  122 1    
   119   60   61 2    
   120   60   62 1    
   121   62   63 1    
   122   62   64 1    
   123   62  123 1    
   124   63  124 1    
   125   63  125 1    
   126   63  126 1    
   127   64   65 am   BACKBONE|DICT|INTERRES
   128   64  127 1    
   129   65   66 2    
@<TRIPOS>SUBSTRUCTURE
     1 UNK         1 GROUP             0       ****    0 ROOT    
