@<TRIPOS>MOLECULE
3R135
127   129    1
SMALL
USER_CHARGES


@<TRIPOS>ATOM
      1 CA        -82.8098   28.2388  -70.6469 C.3       0 UNK        -0.1998 
      2 C         -81.8167   27.9095  -71.7508 C.2       0 UNK         0.4909 
      3 O         -81.8707   28.5100  -72.8251 O.2       0 UNK        -0.5240 
      4 N         -80.9145   26.9519  -71.5028 N.am      1 UNK        -0.4739 
      5 CA        -79.8625   26.5071  -72.4263 C.3       1 UNK         0.0864 
      6 C6        -78.6625   25.8714  -71.6733 C.3       11 UNK        -0.0881 
      7 S7        -77.9984   26.9091  -70.3247 S.3       11 UNK        -0.2682 
      8 C8        -76.3735   27.4080  -70.9714 C.3       11 UNK         0.0289 
      9 C9        -76.4616   28.6753  -71.8070 C.ar      11 UNK        -0.0687 
     10 C10       -76.5074   28.6088  -73.2009 C.ar      11 UNK        -0.0823 
     11 C11       -76.5209   29.7787  -73.9696 C.ar      11 UNK        -0.0830 
     12 C12       -76.4995   31.0214  -73.3253 C.ar      11 UNK        -0.1021 
     13 C13       -76.4546   31.1018  -71.9299 C.ar      11 UNK        -0.0753 
     14 C14       -76.4497   29.9221  -71.1787 C.ar      11 UNK        -0.0933 
     15 C15       -76.4368   32.4610  -71.2382 C.3       11 UNK         0.0166 
     16 S16       -75.1814   32.5805  -69.9176 S.3       11 UNK        -0.2615 
     17 C17       -73.6441   33.0011  -70.8180 C.3       11 UNK        -0.0865 
     18 CA        -72.6538   31.8270  -71.0606 C.3       10 UNK         0.0862 
     19 C         -72.2622   31.0617  -69.7608 C.2       10 UNK         0.5551 
     20 N         -72.5079   29.7611  -69.6565 N.am      10 UNK        -0.7319 
     21 O         -71.7101   31.6595  -68.8401 O.2       10 UNK        -0.5018 
     22 N         -73.0869   30.9881  -72.1875 N.am      10 UNK        -0.4509 
     23 C         -72.2745   30.2345  -72.9390 C.2       10 UNK         0.4899 
     24 O         -71.0617   30.1101  -72.7551 O.2       10 UNK        -0.4839 
     25 CA        -72.9337   29.5470  -74.1341 C.3       9 UNK         0.0222 
     26 CB        -73.0116   30.5027  -75.3385 C.3       9 UNK        -0.1966 
     27 N         -72.2045   28.3393  -74.5136 N.am      9 UNK        -0.4218 
     28 C         -72.7938   27.2235  -74.9571 C.2       9 UNK         0.5020 
     29 O         -74.0135   27.0868  -75.0518 O.2       9 UNK        -0.5274 
     30 CA        -71.8793   26.0597  -75.3483 C.3       8 UNK         0.0270 
     31 CB        -71.4153   25.2796  -74.1050 C.3       8 UNK        -0.1976 
     32 N         -72.6107   25.1629  -76.2437 N.am      8 UNK        -0.4313 
     33 C         -72.0611   24.4337  -77.2215 C.2       8 UNK         0.5041 
     34 O         -70.8561   24.4364  -77.4787 O.2       8 UNK        -0.5577 
     35 CA        -72.9958   23.5453  -78.0556 C.3       7 UNK         0.0284 
     36 CB        -73.3050   22.2376  -77.3063 C.3       7 UNK        -0.1958 
     37 N         -74.2511   24.2198  -78.3951 N.am      7 UNK        -0.4454 
     38 C         -74.5117   24.7940  -79.5793 C.2       7 UNK         0.5089 
     39 O         -73.6918   24.8656  -80.4956 O.2       7 UNK        -0.5125 
     40 CA        -75.9284   25.3590  -79.8129 C.3       6 UNK         0.0408 
     41 CB        -76.7479   24.3952  -80.6860 C.3       6 UNK        -0.1791 
     42 N         -76.6620   25.6097  -78.5722 N.am      6 UNK        -0.4762 
     43 C         -76.4613   26.6686  -77.7739 C.2       6 UNK         0.5007 
     44 O         -75.7219   27.6051  -78.0759 O.2       6 UNK        -0.5032 
     45 CA        -77.1536   26.6501  -76.3908 C.3       5 UNK         0.0783 
     46 C46       -78.3652   27.6178  -76.3009 C.3       11 UNK        -0.0857 
     47 S47       -78.0790   29.4275  -76.2696 S.3       11 UNK        -0.2512 
     48 C48       -76.4570   29.7149  -75.4915 C.3       11 UNK         0.0225 
     49 N         -77.5335   25.2952  -75.9658 N.am      5 UNK        -0.4615 
     50 C         -76.6673   24.3130  -75.6697 C.2       4 UNK         0.5053 
     51 O         -75.4465   24.4502  -75.7279 O.2       4 UNK        -0.5105 
     52 CA        -77.2348   22.9311  -75.3060 C.3       4 UNK         0.0263 
     53 CB        -77.1034   22.6628  -73.7988 C.3       4 UNK        -0.1981 
     54 N         -78.6268   22.7554  -75.7285 N.am      4 UNK        -0.4224 
     55 C         -78.9944   22.5266  -76.9989 C.2       3 UNK         0.4895 
     56 O         -78.1929   22.4121  -77.9267 O.2       3 UNK        -0.5091 
     57 CA        -80.5023   22.4453  -77.3019 C.3       3 UNK         0.0250 
     58 CB        -80.9836   20.9869  -77.2402 C.3       3 UNK        -0.1996 
     59 N         -81.3363   23.2696  -76.4213 N.am      3 UNK        -0.4254 
     60 C         -81.2590   24.6040  -76.3201 C.2       2 UNK         0.5004 
     61 O         -80.4658   25.2855  -76.9689 O.2       2 UNK        -0.5226 
     62 CA        -82.1791   25.3039  -75.3000 C.3       2 UNK         0.0269 
     63 CB        -83.2013   24.3647  -74.6196 C.3       2 UNK        -0.1926 
     64 N         -81.4142   26.0323  -74.2789 N.am      2 UNK        -0.4687 
     65 C         -80.4449   25.5453  -73.4900 C.2       1 UNK         0.5165 
     66 O         -80.0393   24.3830  -73.5594 O.2       1 UNK        -0.5079 
     67 H67       -82.6425   27.6354  -69.7549 H         1 UNK         0.0900 
     68 H68       -82.7239   29.2884  -70.3670 H         1 UNK         0.0900 
     69 H69       -83.8275   28.0598  -70.9923 H         1 UNK         0.0900 
     70 H70       -80.9217   26.4864  -70.6063 H         1 UNK         0.2959 
     71 H71       -79.4830   27.3823  -72.9589 H         1 UNK         0.1079 
     72 H72       -78.9542   24.9191  -71.2257 H         1 UNK         0.0837 
     73 H73       -77.8631   25.6378  -72.3782 H         1 UNK         0.0837 
     74 H74       -75.9212   26.5945  -71.5409 H         1 UNK         0.0685 
     75 H75       -75.7065   27.5831  -70.1258 H         1 UNK         0.0685 
     76 H76       -76.4909   27.6409  -73.6753 H         1 UNK         0.1434 
     77 H77       -76.5027   31.9292  -73.9136 H         1 UNK         0.1329 
     78 H78       -76.4203   29.9726  -70.0987 H         1 UNK         0.1335 
     79 H79       -76.2883   33.2694  -71.9557 H         1 UNK         0.0680 
     80 H80       -77.4187   32.6256  -70.7928 H         1 UNK         0.0680 
     81 H81       -73.1387   33.7719  -70.2333 H         1 UNK         0.1032 
     82 H82       -73.8921   33.4858  -71.7635 H         1 UNK         0.1032 
     83 H83       -71.7228   32.2950  -71.3873 H         1 UNK         0.0461 
     84 H84       -72.2451   29.2729  -68.8152 H         1 UNK         0.3453 
     85 H85       -72.9559   29.2685  -70.4114 H         1 UNK         0.3453 
     86 H86       -74.0782   30.9970  -72.3854 H         1 UNK         0.2984 
     87 H87       -73.9378   29.2716  -73.8223 H         1 UNK         0.0554 
     88 H88       -73.5943   31.3927  -75.0977 H         1 UNK         0.0847 
     89 H89       -73.4863   30.0257  -76.1959 H         1 UNK         0.0847 
     90 H90       -72.0210   30.8353  -75.6511 H         1 UNK         0.0847 
     91 H91       -71.2017   28.3743  -74.3814 H         1 UNK         0.3141 
     92 H92       -71.0121   26.4725  -75.8683 H         1 UNK         0.0743 
     93 H93       -70.8697   25.9241  -73.4149 H         1 UNK         0.0784 
     94 H94       -72.2606   24.8564  -73.5603 H         1 UNK         0.0784 
     95 H95       -70.7494   24.4605  -74.3772 H         1 UNK         0.0784 
     96 H96       -73.6171   25.1365  -76.0860 H         1 UNK         0.3213 
     97 H97       -72.4628   23.2775  -78.9708 H         1 UNK         0.0855 
     98 H98       -73.8161   22.4180  -76.3603 H         1 UNK         0.0814 
     99 H99       -72.3867   21.6942  -77.0795 H         1 UNK         0.0814 
    100 H100      -73.9323   21.5770  -77.9049 H         1 UNK         0.0814 
    101 H101      -74.9489   24.2641  -77.6613 H         1 UNK         0.3105 
    102 H102      -75.8236   26.3005  -80.3562 H         1 UNK         0.0547 
    103 H103      -77.7347   24.8011  -80.9086 H         1 UNK         0.0837 
    104 H104      -76.8842   23.4274  -80.2014 H         1 UNK         0.0837 
    105 H105      -76.2509   24.2140  -81.6400 H         1 UNK         0.0837 
    106 H106      -77.2902   24.8811  -78.2598 H         1 UNK         0.3020 
    107 H107      -76.3964   26.9616  -75.6820 H         1 UNK         0.1245 
    108 H108      -78.9305   27.3989  -75.3952 H         1 UNK         0.0781 
    109 H109      -79.0548   27.4218  -77.1230 H         1 UNK         0.0781 
    110 H110      -76.0889   30.6684  -75.8728 H         1 UNK         0.0836 
    111 H111      -75.7132   28.9920  -75.8169 H         1 UNK         0.0836 
    112 H112      -78.5252   25.0885  -75.9731 H         1 UNK         0.3022 
    113 H113      -76.6236   22.1894  -75.8253 H         1 UNK         0.0747 
    114 H114      -77.4445   21.6594  -73.5440 H         1 UNK         0.0793 
    115 H115      -76.0631   22.7412  -73.4796 H         1 UNK         0.0793 
    116 H116      -77.6775   23.3718  -73.2047 H         1 UNK         0.0793 
    117 H117      -79.3396   22.9082  -75.0235 H         1 UNK         0.3047 
    118 H118      -80.6451   22.8089  -78.3218 H         1 UNK         0.0822 
    119 H119      -82.0253   20.8984  -77.5490 H         1 UNK         0.0807 
    120 H120      -80.8936   20.5735  -76.2347 H         1 UNK         0.0807 
    121 H121      -80.3958   20.3536  -77.9065 H         1 UNK         0.0807 
    122 H122      -81.9980   22.7829  -75.8340 H         1 UNK         0.2946 
    123 H123      -82.7383   26.0509  -75.8658 H         1 UNK         0.1144 
    124 H124      -83.8339   23.8652  -75.3549 H         1 UNK         0.0793 
    125 H125      -83.8661   24.9266  -73.9634 H         1 UNK         0.0793 
    126 H126      -82.7187   23.5974  -74.0129 H         1 UNK         0.0793 
    127 H127      -81.6841   26.9995  -74.1232 H         1 UNK         0.2896 
@<TRIPOS>BOND
     1    1    2 1    
     2    1   67 1    
     3    1   68 1    
     4    1   69 1    
     5    2    3 2    
     6    2    4 am   BACKBONE|DICT|INTERRES
     7    4    5 1    
     8    4   70 1    
     9    5    6 1    
    10    5   65 1    
    11    5   71 1    
    12    6    7 1    
    13    6   72 1    
    14    6   73 1    
    15    7    8 1    
    16    8    9 1    
    17    8   74 1    
    18    8   75 1    
    19    9   10 ar   
    20    9   14 ar   
    21   10   11 ar   
    22   10   76 1    
    23   11   12 ar   
    24   11   48 1    
    25   12   13 ar   
    26   12   77 1    
    27   13   14 ar   
    28   13   15 1    
    29   14   78 1    
    30   15   16 1    
    31   15   79 1    
    32   15   80 1    
    33   16   17 1    
    34   17   18 1    
    35   17   81 1    
    36   17   82 1    
    37   18   19 1    
    38   18   22 1    
    39   18   83 1    
    40   19   20 am   BACKBONE|DICT|INTERRES
    41   19   21 2    
    42   20   84 1    
    43   20   85 1    
    44   22   23 am   BACKBONE|DICT|INTERRES
    45   22   86 1    
    46   23   24 2    
    47   23   25 1    
    48   25   26 1    
    49   25   27 1    
    50   25   87 1    
    51   26   88 1    
    52   26   89 1    
    53   26   90 1    
    54   27   28 am   BACKBONE|DICT|INTERRES
    55   27   91 1    
    56   28   29 2    
    57   28   30 1    
    58   30   31 1    
    59   30   32 1    
    60   30   92 1    
    61   31   93 1    
    62   31   94 1    
    63   31   95 1    
    64   32   33 am   BACKBONE|DICT|INTERRES
    65   32   96 1    
    66   33   34 2    
    67   33   35 1    
    68   35   36 1    
    69   35   37 1    
    70   35   97 1    
    71   36   98 1    
    72   36   99 1    
    73   36  100 1    
    74   37   38 am   BACKBONE|DICT|INTERRES
    75   37  101 1    
    76   38   39 2    
    77   38   40 1    
    78   40   41 1    
    79   40   42 1    
    80   40  102 1    
    81   41  103 1    
    82   41  104 1    
    83   41  105 1    
    84   42   43 am   BACKBONE|DICT|INTERRES
    85   42  106 1    
    86   43   44 2    
    87   43   45 1    
    88   45   46 1    
    89   45   49 1    
    90   45  107 1    
    91   46   47 1    
    92   46  108 1    
    93   46  109 1    
    94   47   48 1    
    95   48  110 1    
    96   48  111 1    
    97   49   50 am   BACKBONE|DICT|INTERRES
    98   49  112 1    
    99   50   51 2    
   100   50   52 1    
   101   52   53 1    
   102   52   54 1    
   103   52  113 1    
   104   53  114 1    
   105   53  115 1    
   106   53  116 1    
   107   54   55 am   BACKBONE|DICT|INTERRES
   108   54  117 1    
   109   55   56 2    
   110   55   57 1    
   111   57   58 1    
   112   57   59 1    
   113   57  118 1    
   114   58  119 1    
   115   58  120 1    
   116   58  121 1    
   117   59   60 am   BACKBONE|DICT|INTERRES
   118   59  122 1    
   119   60   61 2    
   120   60   62 1    
   121   62   63 1    
   122   62   64 1    
   123   62  123 1    
   124   63  124 1    
   125   63  125 1    
   126   63  126 1    
   127   64   65 am   BACKBONE|DICT|INTERRES
   128   64  127 1    
   129   65   66 2    
@<TRIPOS>SUBSTRUCTURE
     1 UNK         1 GROUP             0       ****    0 ROOT    
