@<TRIPOS>MOLECULE
3R135
127   129    1
SMALL
USER_CHARGES


@<TRIPOS>ATOM
      1 CA        -82.3652   26.3422  -71.3518 C.3       0 UNK        -0.1998 
      2 C         -82.4483   27.4094  -72.4321 C.2       0 UNK         0.4909 
      3 O         -83.5449   27.8407  -72.7883 O.2       0 UNK        -0.5240 
      4 N         -81.2931   27.8206  -72.9690 N.am      1 UNK        -0.4739 
      5 CA        -81.1693   28.8166  -74.0454 C.3       1 UNK         0.0864 
      6 C6        -79.9579   29.7595  -73.8243 C.3       11 UNK        -0.0881 
      7 S7        -80.0444   30.6664  -72.2447 S.3       11 UNK        -0.2682 
      8 C8        -78.2773   30.7615  -71.7870 C.3       11 UNK         0.0289 
      9 C9        -77.6178   29.4405  -71.3811 C.ar      11 UNK        -0.0687 
     10 C10       -78.3518   28.3449  -70.9092 C.ar      11 UNK        -0.0823 
     11 C11       -77.7110   27.1708  -70.5015 C.ar      11 UNK        -0.0830 
     12 C12       -76.3141   27.0988  -70.5665 C.ar      11 UNK        -0.1021 
     13 C13       -75.5602   28.1901  -71.0136 C.ar      11 UNK        -0.0753 
     14 C14       -76.2228   29.3527  -71.4184 C.ar      11 UNK        -0.0933 
     15 C15       -74.0343   28.1365  -70.9626 C.3       11 UNK         0.0166 
     16 S16       -73.2269   28.3285  -72.5880 S.3       11 UNK        -0.2615 
     17 C17       -73.0082   30.1388  -72.7310 C.3       11 UNK        -0.0865 
     18 CA        -73.7183   30.7459  -73.9708 C.3       10 UNK         0.0862 
     19 C         -73.5284   32.2879  -73.9925 C.2       10 UNK         0.5551 
     20 N         -74.5238   33.0449  -73.5519 N.am      10 UNK        -0.7319 
     21 O         -72.4697   32.7955  -74.3571 O.2       10 UNK        -0.5018 
     22 N         -73.2606   30.0887  -75.2014 N.am      10 UNK        -0.4509 
     23 C         -73.6580   30.3437  -76.4540 C.2       10 UNK         0.4899 
     24 O         -74.5056   31.1879  -76.7455 O.2       10 UNK        -0.4839 
     25 CA        -73.0611   29.4722  -77.5778 C.3       9 UNK         0.0222 
     26 CB        -72.3348   30.3211  -78.6419 C.3       9 UNK        -0.1966 
     27 N         -72.2369   28.3486  -77.1012 N.am      9 UNK        -0.4218 
     28 C         -71.0008   28.3735  -76.5738 C.2       9 UNK         0.5020 
     29 O         -70.3272   29.3985  -76.4710 O.2       9 UNK        -0.5274 
     30 CA        -70.4353   27.0525  -76.0096 C.3       8 UNK         0.0270 
     31 CB        -69.7066   27.2792  -74.6714 C.3       8 UNK        -0.1976 
     32 N         -71.4762   26.0429  -75.8030 N.am      8 UNK        -0.4313 
     33 C         -71.8261   25.0939  -76.6805 C.2       8 UNK         0.5041 
     34 O         -71.2581   24.9102  -77.7572 O.2       8 UNK        -0.5577 
     35 CA        -73.0431   24.2288  -76.3075 C.3       7 UNK         0.0284 
     36 CB        -72.5976   22.9314  -75.6152 C.3       7 UNK        -0.1958 
     37 N         -74.0144   24.9219  -75.4545 N.am      7 UNK        -0.4454 
     38 C         -74.7346   25.9924  -75.8118 C.2       7 UNK         0.5089 
     39 O         -74.6269   26.5468  -76.9064 O.2       7 UNK        -0.5125 
     40 CA        -75.7242   26.5307  -74.7633 C.3       6 UNK         0.0408 
     41 CB        -76.5296   27.7415  -75.2616 C.3       6 UNK        -0.1791 
     42 N         -76.6480   25.5029  -74.2890 N.am      6 UNK        -0.4762 
     43 C         -76.3647   24.5623  -73.3771 C.2       6 UNK         0.5007 
     44 O         -75.2503   24.4169  -72.8716 O.2       6 UNK        -0.5032 
     45 CA        -77.5018   23.5953  -73.0140 C.3       5 UNK         0.0783 
     46 C46       -78.5775   24.2759  -72.1301 C.3       11 UNK        -0.0857 
     47 S47       -78.0408   24.3604  -70.3892 S.3       11 UNK        -0.2512 
     48 C48       -78.5408   26.0419  -69.8918 C.3       11 UNK         0.0225 
     49 N         -78.0666   23.0378  -74.2440 N.am      5 UNK        -0.4615 
     50 C         -77.7504   21.8353  -74.7463 C.2       4 UNK         0.5053 
     51 O         -77.0441   21.0122  -74.1637 O.2       4 UNK        -0.5105 
     52 CA        -78.3023   21.4854  -76.1419 C.3       4 UNK         0.0263 
     53 CB        -79.6486   20.7537  -76.0193 C.3       4 UNK        -0.1981 
     54 N         -78.4672   22.6576  -77.0034 N.am      4 UNK        -0.4224 
     55 C         -77.4648   23.4253  -77.4555 C.2       3 UNK         0.4895 
     56 O         -76.2757   23.1411  -77.3186 O.2       3 UNK        -0.5091 
     57 CA        -77.8452   24.7456  -78.1556 C.3       3 UNK         0.0250 
     58 CB        -77.6245   24.6311  -79.6725 C.3       3 UNK        -0.1996 
     59 N         -79.2169   25.2124  -77.9025 N.am      3 UNK        -0.4254 
     60 C         -79.7216   25.5266  -76.7015 C.2       2 UNK         0.5004 
     61 O         -79.1021   25.3972  -75.6413 O.2       2 UNK        -0.5226 
     62 CA        -81.1852   25.9869  -76.6685 C.3       2 UNK         0.0269 
     63 CB        -82.1211   24.7702  -76.5807 C.3       2 UNK        -0.1926 
     64 N         -81.4097   26.8383  -75.5025 N.am      2 UNK        -0.4687 
     65 C         -81.0983   28.1397  -75.4344 C.2       1 UNK         0.5165 
     66 O         -80.7446   28.7956  -76.4159 O.2       1 UNK        -0.5079 
     67 H67       -83.2658   25.7283  -71.3536 H         1 UNK         0.0900 
     68 H68       -82.2714   26.8057  -70.3701 H         1 UNK         0.0900 
     69 H69       -81.5136   25.6810  -71.5092 H         1 UNK         0.0900 
     70 H70       -80.4224   27.4223  -72.6504 H         1 UNK         0.2959 
     71 H71       -82.0655   29.4409  -74.0649 H         1 UNK         0.1079 
     72 H72       -79.8914   30.5028  -74.6213 H         1 UNK         0.0837 
     73 H73       -79.0304   29.1898  -73.8612 H         1 UNK         0.0837 
     74 H74       -77.7329   31.2035  -72.6231 H         1 UNK         0.0685 
     75 H75       -78.1802   31.4583  -70.9536 H         1 UNK         0.0685 
     76 H76       -79.4257   28.4173  -70.8175 H         1 UNK         0.1434 
     77 H77       -75.8103   26.2045  -70.2262 H         1 UNK         0.1329 
     78 H78       -75.6494   30.2105  -71.7335 H         1 UNK         0.1335 
     79 H79       -73.6661   28.8933  -70.2689 H         1 UNK         0.0680 
     80 H80       -73.7116   27.1787  -70.5515 H         1 UNK         0.0680 
     81 H81       -73.3550   30.6237  -71.8172 H         1 UNK         0.1032 
     82 H82       -71.9357   30.3394  -72.7770 H         1 UNK         0.1032 
     83 H83       -74.7863   30.5350  -73.8939 H         1 UNK         0.0461 
     84 H84       -75.3965   32.6423  -73.2512 H         1 UNK         0.3453 
     85 H85       -74.4075   34.0462  -73.5438 H         1 UNK         0.3453 
     86 H86       -72.5441   29.3919  -75.0735 H         1 UNK         0.2984 
     87 H87       -73.9151   29.0054  -78.0707 H         1 UNK         0.0554 
     88 H88       -71.9243   29.6985  -79.4367 H         1 UNK         0.0847 
     89 H89       -71.5195   30.9049  -78.2142 H         1 UNK         0.0847 
     90 H90       -73.0221   31.0284  -79.1075 H         1 UNK         0.0847 
     91 H91       -72.7237   27.4584  -77.1118 H         1 UNK         0.3141 
     92 H92       -69.7044   26.6843  -76.7326 H         1 UNK         0.0743 
     93 H93       -70.3690   27.7046  -73.9164 H         1 UNK         0.0784 
     94 H94       -69.3037   26.3463  -74.2766 H         1 UNK         0.0784 
     95 H95       -68.8659   27.9640  -74.7908 H         1 UNK         0.0784 
     96 H96       -72.0074   26.1100  -74.9459 H         1 UNK         0.3213 
     97 H97       -73.5525   23.9642  -77.2369 H         1 UNK         0.0855 
     98 H98       -72.1093   23.1289  -74.6601 H         1 UNK         0.0814 
     99 H99       -71.8905   22.3804  -76.2369 H         1 UNK         0.0814 
    100 H100      -73.4462   22.2721  -75.4299 H         1 UNK         0.0814 
    101 H101      -74.1903   24.5354  -74.5313 H         1 UNK         0.3105 
    102 H102      -75.1355   26.8646  -73.9119 H         1 UNK         0.0547 
    103 H103      -77.1950   27.4793  -76.0845 H         1 UNK         0.0837 
    104 H104      -77.1301   28.1579  -74.4556 H         1 UNK         0.0837 
    105 H105      -75.8715   28.5368  -75.6107 H         1 UNK         0.0837 
    106 H106      -77.5749   25.5117  -74.7117 H         1 UNK         0.3020 
    107 H107      -77.0557   22.7847  -72.4324 H         1 UNK         0.1245 
    108 H108      -78.8430   25.2671  -72.5034 H         1 UNK         0.0781 
    109 H109      -79.4991   23.6922  -72.1496 H         1 UNK         0.0781 
    110 H110      -79.5992   26.1707  -70.1177 H         1 UNK         0.0836 
    111 H111      -78.4554   26.1129  -68.8067 H         1 UNK         0.0836 
    112 H112      -78.6143   23.6777  -74.8099 H         1 UNK         0.3022 
    113 H113      -77.5869   20.8137  -76.6214 H         1 UNK         0.0747 
    114 H114      -80.0163   20.4322  -76.9940 H         1 UNK         0.0793 
    115 H115      -79.5511   19.8601  -75.4011 H         1 UNK         0.0793 
    116 H116      -80.4123   21.3843  -75.5620 H         1 UNK         0.0793 
    117 H117      -79.4125   22.9580  -77.1870 H         1 UNK         0.3047 
    118 H118      -77.1667   25.5100  -77.7714 H         1 UNK         0.0822 
    119 H119      -77.7846   25.5872  -80.1712 H         1 UNK         0.0807 
    120 H120      -78.2938   23.8977  -80.1241 H         1 UNK         0.0807 
    121 H121      -76.6024   24.3211  -79.8960 H         1 UNK         0.0807 
    122 H122      -79.8046   25.3223  -78.7170 H         1 UNK         0.2946 
    123 H123      -81.4077   26.5494  -77.5785 H         1 UNK         0.1144 
    124 H124      -83.1661   25.0780  -76.5379 H         1 UNK         0.0793 
    125 H125      -81.9157   24.1626  -75.6980 H         1 UNK         0.0793 
    126 H126      -82.0124   24.1255  -77.4539 H         1 UNK         0.0793 
    127 H127      -81.6566   26.3715  -74.6428 H         1 UNK         0.2896 
@<TRIPOS>BOND
     1    1    2 1    
     2    1   67 1    
     3    1   68 1    
     4    1   69 1    
     5    2    3 2    
     6    2    4 am   BACKBONE|DICT|INTERRES
     7    4    5 1    
     8    4   70 1    
     9    5    6 1    
    10    5   65 1    
    11    5   71 1    
    12    6    7 1    
    13    6   72 1    
    14    6   73 1    
    15    7    8 1    
    16    8    9 1    
    17    8   74 1    
    18    8   75 1    
    19    9   10 ar   
    20    9   14 ar   
    21   10   11 ar   
    22   10   76 1    
    23   11   12 ar   
    24   11   48 1    
    25   12   13 ar   
    26   12   77 1    
    27   13   14 ar   
    28   13   15 1    
    29   14   78 1    
    30   15   16 1    
    31   15   79 1    
    32   15   80 1    
    33   16   17 1    
    34   17   18 1    
    35   17   81 1    
    36   17   82 1    
    37   18   19 1    
    38   18   22 1    
    39   18   83 1    
    40   19   20 am   BACKBONE|DICT|INTERRES
    41   19   21 2    
    42   20   84 1    
    43   20   85 1    
    44   22   23 am   BACKBONE|DICT|INTERRES
    45   22   86 1    
    46   23   24 2    
    47   23   25 1    
    48   25   26 1    
    49   25   27 1    
    50   25   87 1    
    51   26   88 1    
    52   26   89 1    
    53   26   90 1    
    54   27   28 am   BACKBONE|DICT|INTERRES
    55   27   91 1    
    56   28   29 2    
    57   28   30 1    
    58   30   31 1    
    59   30   32 1    
    60   30   92 1    
    61   31   93 1    
    62   31   94 1    
    63   31   95 1    
    64   32   33 am   BACKBONE|DICT|INTERRES
    65   32   96 1    
    66   33   34 2    
    67   33   35 1    
    68   35   36 1    
    69   35   37 1    
    70   35   97 1    
    71   36   98 1    
    72   36   99 1    
    73   36  100 1    
    74   37   38 am   BACKBONE|DICT|INTERRES
    75   37  101 1    
    76   38   39 2    
    77   38   40 1    
    78   40   41 1    
    79   40   42 1    
    80   40  102 1    
    81   41  103 1    
    82   41  104 1    
    83   41  105 1    
    84   42   43 am   BACKBONE|DICT|INTERRES
    85   42  106 1    
    86   43   44 2    
    87   43   45 1    
    88   45   46 1    
    89   45   49 1    
    90   45  107 1    
    91   46   47 1    
    92   46  108 1    
    93   46  109 1    
    94   47   48 1    
    95   48  110 1    
    96   48  111 1    
    97   49   50 am   BACKBONE|DICT|INTERRES
    98   49  112 1    
    99   50   51 2    
   100   50   52 1    
   101   52   53 1    
   102   52   54 1    
   103   52  113 1    
   104   53  114 1    
   105   53  115 1    
   106   53  116 1    
   107   54   55 am   BACKBONE|DICT|INTERRES
   108   54  117 1    
   109   55   56 2    
   110   55   57 1    
   111   57   58 1    
   112   57   59 1    
   113   57  118 1    
   114   58  119 1    
   115   58  120 1    
   116   58  121 1    
   117   59   60 am   BACKBONE|DICT|INTERRES
   118   59  122 1    
   119   60   61 2    
   120   60   62 1    
   121   62   63 1    
   122   62   64 1    
   123   62  123 1    
   124   63  124 1    
   125   63  125 1    
   126   63  126 1    
   127   64   65 am   BACKBONE|DICT|INTERRES
   128   64  127 1    
   129   65   66 2    
@<TRIPOS>SUBSTRUCTURE
     1 UNK         1 GROUP             0       ****    0 ROOT    
