@<TRIPOS>MOLECULE
3R135
127   129    1
SMALL
USER_CHARGES


@<TRIPOS>ATOM
      1 CA        -80.4792   28.0587  -70.1749 C.3       0 UNK        -0.1998 
      2 C         -81.4213   27.9556  -71.3645 C.2       0 UNK         0.4909 
      3 O         -82.5967   27.6325  -71.1912 O.2       0 UNK        -0.5240 
      4 N         -80.9129   28.2361  -72.5709 N.am      1 UNK        -0.4739 
      5 CA        -81.6647   28.2236  -73.8342 C.3       1 UNK         0.0864 
      6 C6        -80.8882   28.9081  -74.9883 C.3       11 UNK        -0.0881 
      7 S7        -80.3481   30.6102  -74.6001 S.3       11 UNK        -0.2682 
      8 C8        -78.5388   30.4918  -74.7856 C.3       11 UNK         0.0289 
      9 C9        -77.8586   30.0162  -73.5089 C.ar      11 UNK        -0.0687 
     10 C10       -77.8185   28.6570  -73.1903 C.ar      11 UNK        -0.0823 
     11 C11       -77.1854   28.2059  -72.0228 C.ar      11 UNK        -0.0830 
     12 C12       -76.5659   29.1438  -71.1902 C.ar      11 UNK        -0.1021 
     13 C13       -76.5827   30.5058  -71.5044 C.ar      11 UNK        -0.0753 
     14 C14       -77.2457   30.9369  -72.6565 C.ar      11 UNK        -0.0933 
     15 C15       -75.8916   31.5139  -70.5956 C.3       11 UNK         0.0166 
     16 S16       -74.0752   31.4684  -70.7539 S.3       11 UNK        -0.2615 
     17 C17       -73.8156   32.0588  -72.4651 C.3       11 UNK        -0.0865 
     18 CA        -72.5804   31.4754  -73.2166 C.3       10 UNK         0.0862 
     19 C         -71.2046   32.0854  -72.8028 C.2       10 UNK         0.5551 
     20 N         -70.0882   31.4323  -73.1044 N.am      10 UNK        -0.7319 
     21 O         -71.1388   33.1800  -72.2480 O.2       10 UNK        -0.5018 
     22 N         -72.6261   30.0111  -73.3975 N.am      10 UNK        -0.4509 
     23 C         -72.2011   29.0600  -72.5502 C.2       10 UNK         0.4899 
     24 O         -71.7222   29.2726  -71.4365 O.2       10 UNK        -0.4839 
     25 CA        -72.3042   27.6020  -73.0359 C.3       9 UNK         0.0222 
     26 CB        -73.5888   26.9641  -72.4937 C.3       9 UNK        -0.1966 
     27 N         -72.2644   27.4309  -74.4929 N.am      9 UNK        -0.4218 
     28 C         -71.2438   27.7852  -75.2896 C.2       9 UNK         0.5020 
     29 O         -70.2221   28.3448  -74.8886 O.2       9 UNK        -0.5274 
     30 CA        -71.3827   27.4692  -76.7852 C.3       8 UNK         0.0270 
     31 CB        -70.7302   26.1132  -77.1018 C.3       8 UNK        -0.1976 
     32 N         -72.7826   27.4263  -77.2091 N.am      8 UNK        -0.4313 
     33 C         -73.4346   28.4094  -77.8454 C.2       8 UNK         0.5041 
     34 O         -72.9296   29.5057  -78.0926 O.2       8 UNK        -0.5577 
     35 CA        -74.8977   28.1370  -78.2706 C.3       7 UNK         0.0284 
     36 CB        -75.2237   28.7305  -79.6574 C.3       7 UNK        -0.1958 
     37 N         -75.2857   26.7198  -78.1983 N.am      7 UNK        -0.4454 
     38 C         -74.7544   25.6837  -78.8672 C.2       7 UNK         0.5089 
     39 O         -73.9601   25.8070  -79.8000 O.2       7 UNK        -0.5125 
     40 CA        -75.1270   24.2682  -78.3729 C.3       6 UNK         0.0408 
     41 CB        -73.9193   23.3105  -78.4350 C.3       6 UNK        -0.1791 
     42 N         -75.7343   24.2104  -77.0330 N.am      6 UNK        -0.4762 
     43 C         -75.2303   24.6510  -75.8650 C.2       6 UNK         0.5007 
     44 O         -74.1719   25.2780  -75.7657 O.2       6 UNK        -0.5032 
     45 CA        -76.0827   24.4037  -74.6015 C.3       5 UNK         0.0783 
     46 C46       -76.8532   25.6953  -74.2425 C.3       11 UNK        -0.0857 
     47 S47       -77.9058   25.5365  -72.7565 S.3       11 UNK        -0.2512 
     48 C48       -77.1402   26.7308  -71.6062 C.3       11 UNK         0.0225 
     49 N         -76.9842   23.2578  -74.7617 N.am      5 UNK        -0.4615 
     50 C         -76.5885   21.9769  -74.7832 C.2       4 UNK         0.5053 
     51 O         -75.4213   21.6255  -74.6107 O.2       4 UNK        -0.5105 
     52 CA        -77.6586   20.8990  -75.0442 C.3       4 UNK         0.0263 
     53 CB        -78.0296   20.1888  -73.7320 C.3       4 UNK        -0.1981 
     54 N         -78.8832   21.4028  -75.6718 N.am      4 UNK        -0.4224 
     55 C         -78.9744   21.9362  -76.8994 C.2       3 UNK         0.4895 
     56 O         -78.0237   22.0453  -77.6740 O.2       3 UNK        -0.5091 
     57 CA        -80.3532   22.4903  -77.3061 C.3       3 UNK         0.0250 
     58 CB        -81.1721   21.4150  -78.0378 C.3       3 UNK        -0.1996 
     59 N         -81.1279   23.0107  -76.1706 N.am      3 UNK        -0.4254 
     60 C         -80.7469   24.0513  -75.4166 C.2       2 UNK         0.5004 
     61 O         -79.7133   24.6922  -75.6195 O.2       2 UNK        -0.5226 
     62 CA        -81.6228   24.3770  -74.1978 C.3       2 UNK         0.0269 
     63 CB        -81.2599   23.4555  -73.0207 C.3       2 UNK        -0.1926 
     64 N         -81.4240   25.7660  -73.7843 N.am      2 UNK        -0.4687 
     65 C         -82.1062   26.8094  -74.2748 C.2       1 UNK         0.5165 
     66 O         -83.0479   26.6934  -75.0613 O.2       1 UNK        -0.5079 
     67 H67       -80.9750   28.5582  -69.3430 H         1 UNK         0.0900 
     68 H68       -79.5820   28.6274  -70.4180 H         1 UNK         0.0900 
     69 H69       -80.1788   27.0642  -69.8468 H         1 UNK         0.0900 
     70 H70       -79.9513   28.5394  -72.6410 H         1 UNK         0.2959 
     71 H71       -82.5813   28.7935  -73.6659 H         1 UNK         0.1079 
     72 H72       -80.0321   28.3023  -75.2884 H         1 UNK         0.0837 
     73 H73       -81.5223   28.9712  -75.8751 H         1 UNK         0.0837 
     74 H74       -78.2844   29.8343  -75.6182 H         1 UNK         0.0685 
     75 H75       -78.1597   31.4771  -75.0616 H         1 UNK         0.0685 
     76 H76       -78.2915   27.9600  -73.8631 H         1 UNK         0.1434 
     77 H77       -76.0600   28.8144  -70.2925 H         1 UNK         0.1329 
     78 H78       -77.2704   31.9905  -72.8993 H         1 UNK         0.1335 
     79 H79       -76.2434   32.5264  -70.8000 H         1 UNK         0.0680 
     80 H80       -76.1583   31.3032  -69.5590 H         1 UNK         0.0680 
     81 H81       -73.7716   33.1490  -72.4458 H         1 UNK         0.1032 
     82 H82       -74.7016   31.8270  -73.0537 H         1 UNK         0.1032 
     83 H83       -72.6858   31.8456  -74.2372 H         1 UNK         0.0461 
     84 H84       -69.1976   31.8301  -72.8519 H         1 UNK         0.3453 
     85 H85       -70.1312   30.5343  -73.5642 H         1 UNK         0.3453 
     86 H86       -72.9777   29.7023  -74.2911 H         1 UNK         0.2984 
     87 H87       -71.4520   27.0580  -72.6235 H         1 UNK         0.0554 
     88 H88       -73.6733   25.9164  -72.7820 H         1 UNK         0.0847 
     89 H89       -74.4679   27.4942  -72.8585 H         1 UNK         0.0847 
     90 H90       -73.6137   27.0055  -71.4038 H         1 UNK         0.0847 
     91 H91       -73.0370   26.9258  -74.9090 H         1 UNK         0.3141 
     92 H92       -70.8476   28.2425  -77.3406 H         1 UNK         0.0743 
     93 H93       -71.2149   25.2955  -76.5661 H         1 UNK         0.0784 
     94 H94       -70.7809   25.8902  -78.1679 H         1 UNK         0.0784 
     95 H95       -69.6764   26.1108  -76.8195 H         1 UNK         0.0784 
     96 H96       -73.2897   26.5715  -77.0012 H         1 UNK         0.3213 
     97 H97       -75.5187   28.6556  -77.5385 H         1 UNK         0.0855 
     98 H98       -75.0838   29.8121  -79.6629 H         1 UNK         0.0814 
     99 H99       -76.2591   28.5385  -79.9385 H         1 UNK         0.0814 
    100 H100      -74.5818   28.3188  -80.4366 H         1 UNK         0.0814 
    101 H101      -75.9381   26.4867  -77.4634 H         1 UNK         0.3105 
    102 H102      -75.8844   23.8955  -79.0640 H         1 UNK         0.0547 
    103 H103      -73.5359   23.2223  -79.4523 H         1 UNK         0.0837 
    104 H104      -73.0976   23.6555  -77.8064 H         1 UNK         0.0837 
    105 H105      -74.1927   22.3073  -78.1078 H         1 UNK         0.0837 
    106 H106      -76.6171   23.7134  -76.9953 H         1 UNK         0.3020 
    107 H107      -75.3898   24.1786  -73.7877 H         1 UNK         0.1245 
    108 H108      -77.4987   25.9946  -75.0701 H         1 UNK         0.0781 
    109 H109      -76.1541   26.5197  -74.1022 H         1 UNK         0.0781 
    110 H110      -76.1089   26.4281  -71.4295 H         1 UNK         0.0836 
    111 H111      -77.6478   26.6334  -70.6458 H         1 UNK         0.0836 
    112 H112      -77.9613   23.4834  -74.9028 H         1 UNK         0.3022 
    113 H113      -77.2174   20.1645  -75.7213 H         1 UNK         0.0747 
    114 H114      -78.7205   19.3639  -73.9072 H         1 UNK         0.0793 
    115 H115      -77.1448   19.7696  -73.2505 H         1 UNK         0.0793 
    116 H116      -78.4939   20.8730  -73.0203 H         1 UNK         0.0793 
    117 H117      -79.7234   21.3602  -75.1145 H         1 UNK         0.3047 
    118 H118      -80.1795   23.3180  -77.9974 H         1 UNK         0.0822 
    119 H119      -82.1146   21.8178  -78.4094 H         1 UNK         0.0807 
    120 H120      -81.4001   20.5675  -77.3900 H         1 UNK         0.0807 
    121 H121      -80.6257   21.0285  -78.8995 H         1 UNK         0.0807 
    122 H122      -81.9860   22.5270  -75.9458 H         1 UNK         0.2946 
    123 H123      -82.6712   24.2188  -74.4618 H         1 UNK         0.1144 
    124 H124      -81.4538   22.4101  -73.2636 H         1 UNK         0.0793 
    125 H125      -81.8504   23.6940  -72.1358 H         1 UNK         0.0793 
    126 H126      -80.2064   23.5370  -72.7501 H         1 UNK         0.0793 
    127 H127      -80.6263   25.9510  -73.1927 H         1 UNK         0.2896 
@<TRIPOS>BOND
     1    1    2 1    
     2    1   67 1    
     3    1   68 1    
     4    1   69 1    
     5    2    3 2    
     6    2    4 am   BACKBONE|DICT|INTERRES
     7    4    5 1    
     8    4   70 1    
     9    5    6 1    
    10    5   65 1    
    11    5   71 1    
    12    6    7 1    
    13    6   72 1    
    14    6   73 1    
    15    7    8 1    
    16    8    9 1    
    17    8   74 1    
    18    8   75 1    
    19    9   10 ar   
    20    9   14 ar   
    21   10   11 ar   
    22   10   76 1    
    23   11   12 ar   
    24   11   48 1    
    25   12   13 ar   
    26   12   77 1    
    27   13   14 ar   
    28   13   15 1    
    29   14   78 1    
    30   15   16 1    
    31   15   79 1    
    32   15   80 1    
    33   16   17 1    
    34   17   18 1    
    35   17   81 1    
    36   17   82 1    
    37   18   19 1    
    38   18   22 1    
    39   18   83 1    
    40   19   20 am   BACKBONE|DICT|INTERRES
    41   19   21 2    
    42   20   84 1    
    43   20   85 1    
    44   22   23 am   BACKBONE|DICT|INTERRES
    45   22   86 1    
    46   23   24 2    
    47   23   25 1    
    48   25   26 1    
    49   25   27 1    
    50   25   87 1    
    51   26   88 1    
    52   26   89 1    
    53   26   90 1    
    54   27   28 am   BACKBONE|DICT|INTERRES
    55   27   91 1    
    56   28   29 2    
    57   28   30 1    
    58   30   31 1    
    59   30   32 1    
    60   30   92 1    
    61   31   93 1    
    62   31   94 1    
    63   31   95 1    
    64   32   33 am   BACKBONE|DICT|INTERRES
    65   32   96 1    
    66   33   34 2    
    67   33   35 1    
    68   35   36 1    
    69   35   37 1    
    70   35   97 1    
    71   36   98 1    
    72   36   99 1    
    73   36  100 1    
    74   37   38 am   BACKBONE|DICT|INTERRES
    75   37  101 1    
    76   38   39 2    
    77   38   40 1    
    78   40   41 1    
    79   40   42 1    
    80   40  102 1    
    81   41  103 1    
    82   41  104 1    
    83   41  105 1    
    84   42   43 am   BACKBONE|DICT|INTERRES
    85   42  106 1    
    86   43   44 2    
    87   43   45 1    
    88   45   46 1    
    89   45   49 1    
    90   45  107 1    
    91   46   47 1    
    92   46  108 1    
    93   46  109 1    
    94   47   48 1    
    95   48  110 1    
    96   48  111 1    
    97   49   50 am   BACKBONE|DICT|INTERRES
    98   49  112 1    
    99   50   51 2    
   100   50   52 1    
   101   52   53 1    
   102   52   54 1    
   103   52  113 1    
   104   53  114 1    
   105   53  115 1    
   106   53  116 1    
   107   54   55 am   BACKBONE|DICT|INTERRES
   108   54  117 1    
   109   55   56 2    
   110   55   57 1    
   111   57   58 1    
   112   57   59 1    
   113   57  118 1    
   114   58  119 1    
   115   58  120 1    
   116   58  121 1    
   117   59   60 am   BACKBONE|DICT|INTERRES
   118   59  122 1    
   119   60   61 2    
   120   60   62 1    
   121   62   63 1    
   122   62   64 1    
   123   62  123 1    
   124   63  124 1    
   125   63  125 1    
   126   63  126 1    
   127   64   65 am   BACKBONE|DICT|INTERRES
   128   64  127 1    
   129   65   66 2    
@<TRIPOS>SUBSTRUCTURE
     1 UNK         1 GROUP             0       ****    0 ROOT    
