@<TRIPOS>MOLECULE
3R135
127   129    1
SMALL
USER_CHARGES


@<TRIPOS>ATOM
      1 CA        -79.6316   27.5169  -79.2847 C.3       0 UNK        -0.1998 
      2 C         -80.2263   27.8667  -77.9287 C.2       0 UNK         0.4909 
      3 O         -81.3339   28.3994  -77.8686 O.2       0 UNK        -0.5240 
      4 N         -79.5035   27.5538  -76.8445 N.am      1 UNK        -0.4739 
      5 CA        -79.8003   27.8663  -75.4366 C.3       1 UNK         0.0864 
      6 C6        -79.9413   29.3859  -75.1515 C.3       11 UNK        -0.0881 
      7 S7        -78.4921   30.3348  -75.7325 S.3       11 UNK        -0.2682 
      8 C8        -77.7934   30.9488  -74.1652 C.3       11 UNK         0.0289 
      9 C9        -77.1349   29.8946  -73.2740 C.ar      11 UNK        -0.0687 
     10 C10       -76.5320   28.7372  -73.7894 C.ar      11 UNK        -0.0823 
     11 C11       -75.8479   27.8558  -72.9449 C.ar      11 UNK        -0.0830 
     12 C12       -75.7783   28.1266  -71.5762 C.ar      11 UNK        -0.1021 
     13 C13       -76.3704   29.2761  -71.0495 C.ar      11 UNK        -0.0753 
     14 C14       -77.0495   30.1500  -71.9017 C.ar      11 UNK        -0.0933 
     15 C15       -76.2668   29.5874  -69.5638 C.3       11 UNK         0.0166 
     16 S16       -74.9472   30.7951  -69.2111 S.3       11 UNK        -0.2615 
     17 C17       -73.4354   29.7896  -69.4240 C.3       11 UNK        -0.0865 
     18 CA        -72.5003   30.2982  -70.5550 C.3       10 UNK         0.0862 
     19 C         -71.1966   29.4461  -70.6005 C.2       10 UNK         0.5551 
     20 N         -70.9271   28.6802  -71.6505 N.am      10 UNK        -0.7319 
     21 O         -70.4120   29.4839  -69.6557 O.2       10 UNK        -0.5018 
     22 N         -73.2091   30.4260  -71.8376 N.am      10 UNK        -0.4509 
     23 C         -72.7554   31.0814  -72.9126 C.2       10 UNK         0.4899 
     24 O         -71.6883   31.6964  -72.9582 O.2       10 UNK        -0.4839 
     25 CA        -73.6638   31.0353  -74.1526 C.3       9 UNK         0.0222 
     26 CB        -73.9179   32.4460  -74.7096 C.3       9 UNK        -0.1966 
     27 N         -73.1828   30.1699  -75.2353 N.am      9 UNK        -0.4218 
     28 C         -72.6511   28.9427  -75.1458 C.2       9 UNK         0.5020 
     29 O         -72.4152   28.3613  -74.0861 O.2       9 UNK        -0.5274 
     30 CA        -72.3656   28.2320  -76.4843 C.3       8 UNK         0.0270 
     31 CB        -71.5231   26.9558  -76.3009 C.3       8 UNK        -0.1976 
     32 N         -73.5986   27.8880  -77.2022 N.am      8 UNK        -0.4313 
     33 C         -74.3860   28.7604  -77.8490 C.2       8 UNK         0.5041 
     34 O         -74.1449   29.9686  -77.8961 O.2       8 UNK        -0.5577 
     35 CA        -75.6306   28.2228  -78.5833 C.3       7 UNK         0.0284 
     36 CB        -75.6613   28.7065  -80.0441 C.3       7 UNK        -0.1958 
     37 N         -75.7365   26.7602  -78.5753 N.am      7 UNK        -0.4454 
     38 C         -76.3528   26.0474  -77.6261 C.2       7 UNK         0.5089 
     39 O         -76.8743   26.5562  -76.6349 O.2       7 UNK        -0.5125 
     40 CA        -76.4527   24.5221  -77.8179 C.3       6 UNK         0.0408 
     41 CB        -75.6741   23.9711  -79.0346 C.3       6 UNK        -0.1791 
     42 N         -76.0887   23.8065  -76.5935 N.am      6 UNK        -0.4762 
     43 C         -74.8971   23.8291  -75.9734 C.2       6 UNK         0.5007 
     44 O         -73.9269   24.4615  -76.3945 O.2       6 UNK        -0.5032 
     45 CA        -74.7501   23.0210  -74.6621 C.3       5 UNK         0.0783 
     46 C46       -74.4830   23.9343  -73.4411 C.3       11 UNK        -0.0857 
     47 S47       -75.8557   25.0707  -73.0208 S.3       11 UNK        -0.2512 
     48 C48       -75.1061   26.6542  -73.5090 C.3       11 UNK         0.0225 
     49 N         -75.8693   22.1104  -74.4087 N.am      5 UNK        -0.4615 
     50 C         -76.1017   20.9688  -75.0686 C.2       4 UNK         0.5053 
     51 O         -75.3358   20.5047  -75.9134 O.2       4 UNK        -0.5105 
     52 CA        -77.4118   20.2202  -74.7513 C.3       4 UNK         0.0263 
     53 CB        -77.1198   18.9639  -73.9139 C.3       4 UNK        -0.1981 
     54 N         -78.4390   21.0201  -74.0689 N.am      4 UNK        -0.4224 
     55 C         -79.0227   22.1229  -74.5576 C.2       3 UNK         0.4895 
     56 O         -78.7199   22.6434  -75.6360 O.2       3 UNK        -0.5091 
     57 CA        -80.0952   22.7680  -73.6723 C.3       3 UNK         0.0250 
     58 CB        -79.4641   23.4883  -72.4657 C.3       3 UNK        -0.1996 
     59 N         -80.8410   23.7276  -74.4765 N.am      3 UNK        -0.4254 
     60 C         -82.0932   24.1441  -74.2603 C.2       2 UNK         0.5004 
     61 O         -82.8003   23.7400  -73.3348 O.2       2 UNK        -0.5226 
     62 CA        -82.6291   25.1966  -75.2522 C.3       2 UNK         0.0269 
     63 CB        -83.9160   25.8957  -74.7627 C.3       2 UNK        -0.1926 
     64 N         -81.6007   26.1779  -75.6309 N.am      2 UNK        -0.4687 
     65 C         -80.9617   27.0465  -74.8291 C.2       1 UNK         0.5165 
     66 O         -81.2248   27.1868  -73.6340 O.2       1 UNK        -0.5079 
     67 H67       -79.3758   28.4277  -79.8256 H         1 UNK         0.0900 
     68 H68       -80.3534   26.9582  -79.8799 H         1 UNK         0.0900 
     69 H69       -78.7309   26.9121  -79.1938 H         1 UNK         0.0900 
     70 H70       -78.5878   27.1247  -76.9606 H         1 UNK         0.2959 
     71 H71       -78.9212   27.5232  -74.8886 H         1 UNK         0.1079 
     72 H72       -80.0761   29.5622  -74.0826 H         1 UNK         0.0837 
     73 H73       -80.8327   29.7882  -75.6350 H         1 UNK         0.0837 
     74 H74       -77.0422   31.7023  -74.4042 H         1 UNK         0.0685 
     75 H75       -78.5815   31.4676  -73.6170 H         1 UNK         0.0685 
     76 H76       -76.5535   28.5409  -74.8524 H         1 UNK         0.1434 
     77 H77       -75.2444   27.4467  -70.9264 H         1 UNK         0.1329 
     78 H78       -77.4895   31.0502  -71.4942 H         1 UNK         0.1335 
     79 H79       -77.2162   29.9953  -69.2135 H         1 UNK         0.0680 
     80 H80       -76.0984   28.6770  -68.9862 H         1 UNK         0.0680 
     81 H81       -73.7037   28.7464  -69.5952 H         1 UNK         0.1032 
     82 H82       -72.9063   29.8015  -68.4690 H         1 UNK         0.1032 
     83 H83       -72.1831   31.3059  -70.2797 H         1 UNK         0.0461 
     84 H84       -71.5564   28.6421  -72.4496 H         1 UNK         0.3453 
     85 H85       -70.0782   28.1388  -71.6594 H         1 UNK         0.3453 
     86 H86       -74.0938   29.9408  -71.8987 H         1 UNK         0.2984 
     87 H87       -74.6256   30.6370  -73.8431 H         1 UNK         0.0554 
     88 H88       -74.6609   32.4306  -75.5073 H         1 UNK         0.0847 
     89 H89       -74.2933   33.1117  -73.9312 H         1 UNK         0.0847 
     90 H90       -73.0058   32.8915  -75.1087 H         1 UNK         0.0847 
     91 H91       -73.3931   30.4828  -76.1797 H         1 UNK         0.3141 
     92 H92       -71.7864   28.9215  -77.1023 H         1 UNK         0.0743 
     93 H93       -70.5722   27.1837  -75.8177 H         1 UNK         0.0784 
     94 H94       -72.0341   26.2199  -75.6790 H         1 UNK         0.0784 
     95 H95       -71.2962   26.4861  -77.2581 H         1 UNK         0.0784 
     96 H96       -73.8745   26.9152  -77.1801 H         1 UNK         0.3213 
     97 H97       -76.4990   28.6496  -78.0755 H         1 UNK         0.0855 
     98 H98       -75.6547   29.7961  -80.0978 H         1 UNK         0.0814 
     99 H99       -76.5623   28.3679  -80.5559 H         1 UNK         0.0814 
    100 H100      -74.7986   28.3478  -80.6068 H         1 UNK         0.0814 
    101 H101      -75.3173   26.2711  -79.3535 H         1 UNK         0.3105 
    102 H102      -77.5100   24.3103  -77.9830 H         1 UNK         0.0547 
    103 H103      -76.0495   24.3892  -79.9695 H         1 UNK         0.0837 
    104 H104      -74.6062   24.1847  -78.9767 H         1 UNK         0.0837 
    105 H105      -75.7860   22.8893  -79.1086 H         1 UNK         0.0837 
    106 H106      -76.8514   23.3077  -76.1456 H         1 UNK         0.3020 
    107 H107      -73.8589   22.4041  -74.8010 H         1 UNK         0.1245 
    108 H108      -74.2902   23.3154  -72.5634 H         1 UNK         0.0781 
    109 H109      -73.5610   24.4981  -73.5952 H         1 UNK         0.0781 
    110 H110      -75.0410   26.7066  -74.5967 H         1 UNK         0.0836 
    111 H111      -74.0824   26.6863  -73.1361 H         1 UNK         0.0836 
    112 H112      -76.5488   22.4257  -73.7323 H         1 UNK         0.3022 
    113 H113      -77.8315   19.9022  -75.7080 H         1 UNK         0.0747 
    114 H114      -78.0184   18.3639  -73.7692 H         1 UNK         0.0793 
    115 H115      -76.3850   18.3259  -74.4075 H         1 UNK         0.0793 
    116 H116      -76.7215   19.2182  -72.9308 H         1 UNK         0.0793 
    117 H117      -78.7412   20.6772  -73.1678 H         1 UNK         0.3047 
    118 H118      -80.7709   21.9831  -73.3255 H         1 UNK         0.0822 
    119 H119      -80.2284   23.9220  -71.8205 H         1 UNK         0.0807 
    120 H120      -78.8037   24.2965  -72.7827 H         1 UNK         0.0807 
    121 H121      -78.8766   22.8046  -71.8520 H         1 UNK         0.0807 
    122 H122      -80.3390   24.0573  -75.2917 H         1 UNK         0.2946 
    123 H123      -82.8826   24.6479  -76.1609 H         1 UNK         0.1144 
    124 H124      -84.2676   26.6309  -75.4865 H         1 UNK         0.0793 
    125 H125      -83.7662   26.4062  -73.8110 H         1 UNK         0.0793 
    126 H126      -84.7206   25.1737  -74.6183 H         1 UNK         0.0793 
    127 H127      -81.3148   26.1660  -76.6002 H         1 UNK         0.2896 
@<TRIPOS>BOND
     1    1    2 1    
     2    1   67 1    
     3    1   68 1    
     4    1   69 1    
     5    2    3 2    
     6    2    4 am   BACKBONE|DICT|INTERRES
     7    4    5 1    
     8    4   70 1    
     9    5    6 1    
    10    5   65 1    
    11    5   71 1    
    12    6    7 1    
    13    6   72 1    
    14    6   73 1    
    15    7    8 1    
    16    8    9 1    
    17    8   74 1    
    18    8   75 1    
    19    9   10 ar   
    20    9   14 ar   
    21   10   11 ar   
    22   10   76 1    
    23   11   12 ar   
    24   11   48 1    
    25   12   13 ar   
    26   12   77 1    
    27   13   14 ar   
    28   13   15 1    
    29   14   78 1    
    30   15   16 1    
    31   15   79 1    
    32   15   80 1    
    33   16   17 1    
    34   17   18 1    
    35   17   81 1    
    36   17   82 1    
    37   18   19 1    
    38   18   22 1    
    39   18   83 1    
    40   19   20 am   BACKBONE|DICT|INTERRES
    41   19   21 2    
    42   20   84 1    
    43   20   85 1    
    44   22   23 am   BACKBONE|DICT|INTERRES
    45   22   86 1    
    46   23   24 2    
    47   23   25 1    
    48   25   26 1    
    49   25   27 1    
    50   25   87 1    
    51   26   88 1    
    52   26   89 1    
    53   26   90 1    
    54   27   28 am   BACKBONE|DICT|INTERRES
    55   27   91 1    
    56   28   29 2    
    57   28   30 1    
    58   30   31 1    
    59   30   32 1    
    60   30   92 1    
    61   31   93 1    
    62   31   94 1    
    63   31   95 1    
    64   32   33 am   BACKBONE|DICT|INTERRES
    65   32   96 1    
    66   33   34 2    
    67   33   35 1    
    68   35   36 1    
    69   35   37 1    
    70   35   97 1    
    71   36   98 1    
    72   36   99 1    
    73   36  100 1    
    74   37   38 am   BACKBONE|DICT|INTERRES
    75   37  101 1    
    76   38   39 2    
    77   38   40 1    
    78   40   41 1    
    79   40   42 1    
    80   40  102 1    
    81   41  103 1    
    82   41  104 1    
    83   41  105 1    
    84   42   43 am   BACKBONE|DICT|INTERRES
    85   42  106 1    
    86   43   44 2    
    87   43   45 1    
    88   45   46 1    
    89   45   49 1    
    90   45  107 1    
    91   46   47 1    
    92   46  108 1    
    93   46  109 1    
    94   47   48 1    
    95   48  110 1    
    96   48  111 1    
    97   49   50 am   BACKBONE|DICT|INTERRES
    98   49  112 1    
    99   50   51 2    
   100   50   52 1    
   101   52   53 1    
   102   52   54 1    
   103   52  113 1    
   104   53  114 1    
   105   53  115 1    
   106   53  116 1    
   107   54   55 am   BACKBONE|DICT|INTERRES
   108   54  117 1    
   109   55   56 2    
   110   55   57 1    
   111   57   58 1    
   112   57   59 1    
   113   57  118 1    
   114   58  119 1    
   115   58  120 1    
   116   58  121 1    
   117   59   60 am   BACKBONE|DICT|INTERRES
   118   59  122 1    
   119   60   61 2    
   120   60   62 1    
   121   62   63 1    
   122   62   64 1    
   123   62  123 1    
   124   63  124 1    
   125   63  125 1    
   126   63  126 1    
   127   64   65 am   BACKBONE|DICT|INTERRES
   128   64  127 1    
   129   65   66 2    
@<TRIPOS>SUBSTRUCTURE
     1 UNK         1 GROUP             0       ****    0 ROOT    
