@<TRIPOS>MOLECULE
3R135
127   129    1
SMALL
USER_CHARGES


@<TRIPOS>ATOM
      1 CA        -80.4363   24.2824  -70.2495 C.3       0 UNK        -0.1998 
      2 C         -81.4992   25.0368  -71.0321 C.2       0 UNK         0.4909 
      3 O         -82.5984   24.5168  -71.2260 O.2       0 UNK        -0.5240 
      4 N         -81.1858   26.2646  -71.4692 N.am      1 UNK        -0.4739 
      5 CA        -82.1094   27.1518  -72.1939 C.3       1 UNK         0.0864 
      6 C6        -81.6098   28.6168  -72.2386 C.3       11 UNK        -0.0881 
      7 S7        -81.3141   29.2869  -70.5635 S.3       11 UNK        -0.2682 
      8 C8        -80.0697   30.5876  -70.8658 C.3       11 UNK         0.0289 
      9 C9        -78.8145   30.0724  -71.5609 C.ar      11 UNK        -0.0687 
     10 C10       -78.1136   28.9748  -71.0499 C.ar      11 UNK        -0.0823 
     11 C11       -76.9930   28.4737  -71.7180 C.ar      11 UNK        -0.0830 
     12 C12       -76.5575   29.0998  -72.8905 C.ar      11 UNK        -0.1021 
     13 C13       -77.2262   30.2203  -73.3930 C.ar      11 UNK        -0.0753 
     14 C14       -78.3585   30.6967  -72.7266 C.ar      11 UNK        -0.0933 
     15 C15       -76.7438   30.8958  -74.6704 C.3       11 UNK         0.0166 
     16 S16       -75.0666   31.5932  -74.4867 S.3       11 UNK        -0.2615 
     17 C17       -74.2998   31.1929  -76.0999 C.3       11 UNK        -0.0865 
     18 CA        -72.7836   30.8195  -76.0576 C.3       10 UNK         0.0862 
     19 C         -71.7840   32.0166  -76.0271 C.2       10 UNK         0.5551 
     20 N         -72.2444   33.2527  -75.8834 N.am      10 UNK        -0.7319 
     21 O         -70.5811   31.8250  -76.1949 O.2       10 UNK        -0.5018 
     22 N         -72.4677   29.7067  -75.1367 N.am      10 UNK        -0.4509 
     23 C         -72.0635   29.8013  -73.8595 C.2       10 UNK         0.4899 
     24 O         -71.8927   30.8670  -73.2660 O.2       10 UNK        -0.4839 
     25 CA        -71.8106   28.5055  -73.0697 C.3       9 UNK         0.0222 
     26 CB        -72.7176   28.4621  -71.8287 C.3       9 UNK        -0.1966 
     27 N         -71.9978   27.2651  -73.8346 N.am      9 UNK        -0.4218 
     28 C         -70.9873   26.4651  -74.2076 C.2       9 UNK         0.5020 
     29 O         -69.7989   26.7842  -74.1456 O.2       9 UNK        -0.5274 
     30 CA        -71.3490   25.0522  -74.6898 C.3       8 UNK         0.0270 
     31 CB        -71.8745   24.1906  -73.5277 C.3       8 UNK        -0.1976 
     32 N         -72.3377   25.0822  -75.7631 N.am      8 UNK        -0.4313 
     33 C         -72.0400   25.0723  -77.0696 C.2       8 UNK         0.5041 
     34 O         -70.8918   25.0030  -77.5109 O.2       8 UNK        -0.5577 
     35 CA        -73.2147   25.1455  -78.0645 C.3       7 UNK         0.0284 
     36 CB        -73.5814   23.7370  -78.5598 C.3       7 UNK        -0.1958 
     37 N         -74.4132   25.7896  -77.5221 N.am      7 UNK        -0.4454 
     38 C         -74.4752   27.0610  -77.1076 C.2       7 UNK         0.5089 
     39 O         -73.5392   27.8539  -77.1915 O.2       7 UNK        -0.5125 
     40 CA        -75.7739   27.5065  -76.4195 C.3       6 UNK         0.0408 
     41 CB        -76.7982   28.0010  -77.4507 C.3       6 UNK        -0.1791 
     42 N         -76.3770   26.4770  -75.5709 N.am      6 UNK        -0.4762 
     43 C         -75.7864   25.9252  -74.4996 C.2       6 UNK         0.5007 
     44 O         -74.6423   26.1994  -74.1321 O.2       6 UNK        -0.5032 
     45 CA        -76.6083   24.8678  -73.7425 C.3       5 UNK         0.0783 
     46 C46       -77.7172   25.5248  -72.8754 C.3       11 UNK        -0.0857 
     47 S47       -77.2396   25.7461  -71.1312 S.3       11 UNK        -0.2512 
     48 C48       -76.2422   27.2697  -71.1633 C.3       11 UNK         0.0225 
     49 N         -77.1649   23.9104  -74.6988 N.am      5 UNK        -0.4615 
     50 C         -76.4660   22.9416  -75.3052 C.2       4 UNK         0.5053 
     51 O         -75.2931   22.6779  -75.0421 O.2       4 UNK        -0.5105 
     52 CA        -77.1900   22.1460  -76.4077 C.3       4 UNK         0.0263 
     53 CB        -77.8375   20.8823  -75.8198 C.3       4 UNK        -0.1981 
     54 N         -78.2090   22.9293  -77.1147 N.am      4 UNK        -0.4224 
     55 C         -77.9461   23.9898  -77.8923 C.2       3 UNK         0.4895 
     56 O         -76.8095   24.3874  -78.1412 O.2       3 UNK        -0.5091 
     57 CA        -79.1503   24.7733  -78.4444 C.3       3 UNK         0.0250 
     58 CB        -79.5891   24.1939  -79.7984 C.3       3 UNK        -0.1996 
     59 N         -80.3054   24.8364  -77.5401 N.am      3 UNK        -0.4254 
     60 C         -80.2886   25.3000  -76.2821 C.2       2 UNK         0.5004 
     61 O         -79.2684   25.6913  -75.7066 O.2       2 UNK        -0.5226 
     62 CA        -81.6283   25.2779  -75.5363 C.3       2 UNK         0.0269 
     63 CB        -82.1167   23.8341  -75.3101 C.3       2 UNK        -0.1926 
     64 N         -81.4844   25.9356  -74.2397 N.am      2 UNK        -0.4687 
     65 C         -82.4365   26.6371  -73.6124 C.2       1 UNK         0.5165 
     66 O         -83.5466   26.8637  -74.0967 O.2       1 UNK        -0.5079 
     67 H67       -79.8523   23.6493  -70.9166 H         1 UNK         0.0900 
     68 H68       -80.8993   23.6472  -69.4948 H         1 UNK         0.0900 
     69 H69       -79.7599   24.9658  -69.7373 H         1 UNK         0.0900 
     70 H70       -80.2776   26.6543  -71.2600 H         1 UNK         0.2959 
     71 H71       -83.0538   27.1461  -71.6444 H         1 UNK         0.1079 
     72 H72       -80.6978   28.6811  -72.8341 H         1 UNK         0.0837 
     73 H73       -82.3427   29.2582  -72.7321 H         1 UNK         0.0837 
     74 H74       -80.5375   31.3825  -71.4488 H         1 UNK         0.0685 
     75 H75       -79.7859   31.0318  -69.9110 H         1 UNK         0.0685 
     76 H76       -78.4543   28.4955  -70.1422 H         1 UNK         0.1434 
     77 H77       -75.6882   28.7266  -73.4127 H         1 UNK         0.1329 
     78 H78       -78.8907   31.5517  -73.1206 H         1 UNK         0.1335 
     79 H79       -77.4178   31.7032  -74.9600 H         1 UNK         0.0680 
     80 H80       -76.7874   30.1719  -75.4809 H         1 UNK         0.0680 
     81 H81       -74.4793   32.0194  -76.7894 H         1 UNK         0.1032 
     82 H82       -74.8327   30.3559  -76.5459 H         1 UNK         0.1032 
     83 H83       -72.5835   30.3886  -77.0394 H         1 UNK         0.0461 
     84 H84       -71.5958   34.0242  -75.8841 H         1 UNK         0.3453 
     85 H85       -73.2236   33.4159  -75.7086 H         1 UNK         0.3453 
     86 H86       -72.5650   28.7864  -75.5475 H         1 UNK         0.2984 
     87 H87       -70.7821   28.5635  -72.7077 H         1 UNK         0.0554 
     88 H88       -72.6396   27.5121  -71.2997 H         1 UNK         0.0847 
     89 H89       -73.7594   28.6232  -72.0966 H         1 UNK         0.0847 
     90 H90       -72.4475   29.2485  -71.1228 H         1 UNK         0.0847 
     91 H91       -72.9536   26.9262  -73.9331 H         1 UNK         0.3141 
     92 H92       -70.4323   24.5811  -75.0516 H         1 UNK         0.0743 
     93 H93       -72.7949   24.5886  -73.0999 H         1 UNK         0.0784 
     94 H94       -72.0762   23.1701  -73.8542 H         1 UNK         0.0784 
     95 H95       -71.1403   24.1340  -72.7229 H         1 UNK         0.0784 
     96 H96       -73.3065   25.1802  -75.4853 H         1 UNK         0.3213 
     97 H97       -72.8801   25.7360  -78.9199 H         1 UNK         0.0855 
     98 H98       -73.9653   23.1140  -77.7506 H         1 UNK         0.0814 
     99 H99       -72.7117   23.2298  -78.9800 H         1 UNK         0.0814 
    100 H100      -74.3409   23.7765  -79.3408 H         1 UNK         0.0814 
    101 H101      -75.2639   25.2306  -77.4984 H         1 UNK         0.3105 
    102 H102      -75.5138   28.3324  -75.7595 H         1 UNK         0.0547 
    103 H103      -76.4100   28.8563  -78.0050 H         1 UNK         0.0837 
    104 H104      -77.0369   27.2273  -78.1796 H         1 UNK         0.0837 
    105 H105      -77.7277   28.3146  -76.9750 H         1 UNK         0.0837 
    106 H106      -77.3305   26.2005  -75.7868 H         1 UNK         0.3020 
    107 H107      -75.9210   24.3217  -73.0916 H         1 UNK         0.1245 
    108 H108      -78.5960   24.8789  -72.8533 H         1 UNK         0.0781 
    109 H109      -78.0773   26.4686  -73.2905 H         1 UNK         0.0781 
    110 H110      -75.3383   27.0694  -71.7353 H         1 UNK         0.0836 
    111 H111      -75.9125   27.4953  -70.1483 H         1 UNK         0.0836 
    112 H112      -78.0987   24.1160  -75.0312 H         1 UNK         0.3022 
    113 H113      -76.4373   21.8388  -77.1372 H         1 UNK         0.0747 
    114 H114      -78.2841   20.2652  -76.5997 H         1 UNK         0.0793 
    115 H115      -77.0963   20.2671  -75.3075 H         1 UNK         0.0793 
    116 H116      -78.6159   21.1255  -75.0952 H         1 UNK         0.0793 
    117 H117      -79.1731   22.6673  -76.9698 H         1 UNK         0.3047 
    118 H118      -78.8202   25.7997  -78.6096 H         1 UNK         0.0822 
    119 H119      -80.3648   24.8052  -80.2601 H         1 UNK         0.0807 
    120 H120      -79.9750   23.1786  -79.6989 H         1 UNK         0.0807 
    121 H121      -78.7517   24.1572  -80.4970 H         1 UNK         0.0807 
    122 H122      -81.1865   24.5273  -77.9254 H         1 UNK         0.2946 
    123 H123      -82.3538   25.8212  -76.1464 H         1 UNK         0.1144 
    124 H124      -82.2809   23.3119  -76.2533 H         1 UNK         0.0793 
    125 H125      -83.0635   23.8185  -74.7696 H         1 UNK         0.0793 
    126 H126      -81.3975   23.2521  -74.7322 H         1 UNK         0.0793 
    127 H127      -80.5691   25.8592  -73.8186 H         1 UNK         0.2896 
@<TRIPOS>BOND
     1    1    2 1    
     2    1   67 1    
     3    1   68 1    
     4    1   69 1    
     5    2    3 2    
     6    2    4 am   BACKBONE|DICT|INTERRES
     7    4    5 1    
     8    4   70 1    
     9    5    6 1    
    10    5   65 1    
    11    5   71 1    
    12    6    7 1    
    13    6   72 1    
    14    6   73 1    
    15    7    8 1    
    16    8    9 1    
    17    8   74 1    
    18    8   75 1    
    19    9   10 ar   
    20    9   14 ar   
    21   10   11 ar   
    22   10   76 1    
    23   11   12 ar   
    24   11   48 1    
    25   12   13 ar   
    26   12   77 1    
    27   13   14 ar   
    28   13   15 1    
    29   14   78 1    
    30   15   16 1    
    31   15   79 1    
    32   15   80 1    
    33   16   17 1    
    34   17   18 1    
    35   17   81 1    
    36   17   82 1    
    37   18   19 1    
    38   18   22 1    
    39   18   83 1    
    40   19   20 am   BACKBONE|DICT|INTERRES
    41   19   21 2    
    42   20   84 1    
    43   20   85 1    
    44   22   23 am   BACKBONE|DICT|INTERRES
    45   22   86 1    
    46   23   24 2    
    47   23   25 1    
    48   25   26 1    
    49   25   27 1    
    50   25   87 1    
    51   26   88 1    
    52   26   89 1    
    53   26   90 1    
    54   27   28 am   BACKBONE|DICT|INTERRES
    55   27   91 1    
    56   28   29 2    
    57   28   30 1    
    58   30   31 1    
    59   30   32 1    
    60   30   92 1    
    61   31   93 1    
    62   31   94 1    
    63   31   95 1    
    64   32   33 am   BACKBONE|DICT|INTERRES
    65   32   96 1    
    66   33   34 2    
    67   33   35 1    
    68   35   36 1    
    69   35   37 1    
    70   35   97 1    
    71   36   98 1    
    72   36   99 1    
    73   36  100 1    
    74   37   38 am   BACKBONE|DICT|INTERRES
    75   37  101 1    
    76   38   39 2    
    77   38   40 1    
    78   40   41 1    
    79   40   42 1    
    80   40  102 1    
    81   41  103 1    
    82   41  104 1    
    83   41  105 1    
    84   42   43 am   BACKBONE|DICT|INTERRES
    85   42  106 1    
    86   43   44 2    
    87   43   45 1    
    88   45   46 1    
    89   45   49 1    
    90   45  107 1    
    91   46   47 1    
    92   46  108 1    
    93   46  109 1    
    94   47   48 1    
    95   48  110 1    
    96   48  111 1    
    97   49   50 am   BACKBONE|DICT|INTERRES
    98   49  112 1    
    99   50   51 2    
   100   50   52 1    
   101   52   53 1    
   102   52   54 1    
   103   52  113 1    
   104   53  114 1    
   105   53  115 1    
   106   53  116 1    
   107   54   55 am   BACKBONE|DICT|INTERRES
   108   54  117 1    
   109   55   56 2    
   110   55   57 1    
   111   57   58 1    
   112   57   59 1    
   113   57  118 1    
   114   58  119 1    
   115   58  120 1    
   116   58  121 1    
   117   59   60 am   BACKBONE|DICT|INTERRES
   118   59  122 1    
   119   60   61 2    
   120   60   62 1    
   121   62   63 1    
   122   62   64 1    
   123   62  123 1    
   124   63  124 1    
   125   63  125 1    
   126   63  126 1    
   127   64   65 am   BACKBONE|DICT|INTERRES
   128   64  127 1    
   129   65   66 2    
@<TRIPOS>SUBSTRUCTURE
     1 UNK         1 GROUP             0       ****    0 ROOT    
