@<TRIPOS>MOLECULE
3R135
127   129    1
SMALL
USER_CHARGES


@<TRIPOS>ATOM
      1 CA        -86.1198   31.2341  -72.7945 C.3       0 UNK        -0.1998 
      2 C         -84.7096   30.8114  -73.1780 C.2       0 UNK         0.4909 
      3 O         -84.1185   31.4022  -74.0823 O.2       0 UNK        -0.5240 
      4 N         -84.1653   29.7949  -72.4950 N.am      1 UNK        -0.4739 
      5 CA        -82.8300   29.2353  -72.7479 C.3       1 UNK         0.0864 
      6 C6        -82.3634   28.3491  -71.5608 C.3       11 UNK        -0.0881 
      7 S7        -80.5586   28.3834  -71.3026 S.3       11 UNK        -0.2682 
      8 C8        -80.0550   26.8298  -72.1077 C.3       11 UNK         0.0289 
      9 C9        -78.5576   26.5818  -71.9782 C.ar      11 UNK        -0.0687 
     10 C10       -78.0843   25.4394  -71.3247 C.ar      11 UNK        -0.0823 
     11 C11       -76.7111   25.1892  -71.2361 C.ar      11 UNK        -0.0830 
     12 C12       -75.8074   26.1010  -71.7895 C.ar      11 UNK        -0.1021 
     13 C13       -76.2680   27.2424  -72.4495 C.ar      11 UNK        -0.0753 
     14 C14       -77.6432   27.4731  -72.5490 C.ar      11 UNK        -0.0933 
     15 C15       -75.2784   28.2355  -73.0353 C.3       11 UNK         0.0166 
     16 S16       -74.6084   27.6530  -74.6199 S.3       11 UNK        -0.2615 
     17 C17       -73.6543   29.1313  -75.0995 C.3       11 UNK        -0.0865 
     18 CA        -73.0190   29.0104  -76.5143 C.3       10 UNK         0.0862 
     19 C         -73.9779   29.4030  -77.6811 C.2       10 UNK         0.5551 
     20 N         -73.4696   29.8964  -78.8040 N.am      10 UNK        -0.7319 
     21 O         -75.1910   29.2374  -77.5870 O.2       10 UNK        -0.5018 
     22 N         -71.6839   29.6271  -76.5686 N.am      10 UNK        -0.4509 
     23 C         -71.3984   30.9304  -76.4262 C.2       10 UNK         0.4899 
     24 O         -72.2534   31.8001  -76.2528 O.2       10 UNK        -0.4839 
     25 CA        -69.9063   31.3279  -76.5007 C.3       9 UNK         0.0222 
     26 CB        -69.6066   32.6753  -75.8082 C.3       9 UNK        -0.1966 
     27 N         -69.0006   30.2706  -76.0285 N.am      9 UNK        -0.4218 
     28 C         -68.9402   29.7535  -74.7925 C.2       9 UNK         0.5020 
     29 O         -69.5669   30.1817  -73.8206 O.2       9 UNK        -0.5274 
     30 CA        -68.0772   28.4889  -74.6309 C.3       8 UNK         0.0270 
     31 CB        -66.9785   28.6945  -73.5744 C.3       8 UNK        -0.1976 
     32 N         -68.9129   27.3449  -74.2541 N.am      8 UNK        -0.4313 
     33 C         -69.9148   26.8575  -74.9996 C.2       8 UNK         0.5041 
     34 O         -70.1463   27.2465  -76.1486 O.2       8 UNK        -0.5577 
     35 CA        -70.8089   25.7878  -74.3377 C.3       7 UNK         0.0284 
     36 CB        -71.2841   26.2243  -72.9374 C.3       7 UNK        -0.1958 
     37 N         -71.9960   25.4939  -75.1406 N.am      7 UNK        -0.4454 
     38 C         -72.0297   24.7483  -76.2514 C.2       7 UNK         0.5089 
     39 O         -71.0605   24.1389  -76.7090 O.2       7 UNK        -0.5125 
     40 CA        -73.4106   24.6596  -76.9295 C.3       6 UNK         0.0408 
     41 CB        -73.4127   23.7907  -78.2051 C.3       6 UNK        -0.1791 
     42 N         -74.4482   24.2258  -75.9841 N.am      6 UNK        -0.4762 
     43 C         -74.5107   23.0535  -75.3295 C.2       6 UNK         0.5007 
     44 O         -73.7073   22.1343  -75.4919 O.2       6 UNK        -0.5032 
     45 CA        -75.6472   22.8671  -74.3006 C.3       5 UNK         0.0783 
     46 C46       -75.0610   22.7936  -72.8671 C.3       11 UNK        -0.0857 
     47 S47       -76.3297   22.4625  -71.5958 S.3       11 UNK        -0.2512 
     48 C48       -76.2059   23.9378  -70.5336 C.3       11 UNK         0.0225 
     49 N         -76.7090   23.8755  -74.4148 N.am      5 UNK        -0.4615 
     50 C         -77.6264   23.9084  -75.3888 C.2       4 UNK         0.5053 
     51 O         -77.6347   23.1431  -76.3555 O.2       4 UNK        -0.5105 
     52 CA        -78.6902   25.0104  -75.2676 C.3       4 UNK         0.0263 
     53 CB        -78.1871   26.3257  -75.8830 C.3       4 UNK        -0.1981 
     54 N         -79.9686   24.6574  -75.8840 N.am      4 UNK        -0.4224 
     55 C         -80.7771   23.6683  -75.4790 C.2       3 UNK         0.4895 
     56 O         -80.5292   22.9150  -74.5349 O.2       3 UNK        -0.5091 
     57 CA        -82.1084   23.5469  -76.2478 C.3       3 UNK         0.0250 
     58 CB        -83.0155   22.4152  -75.7170 C.3       3 UNK        -0.1996 
     59 N         -82.8371   24.8246  -76.2958 N.am      3 UNK        -0.4254 
     60 C         -83.2619   25.5478  -75.2474 C.2       2 UNK         0.5004 
     61 O         -83.1484   25.1994  -74.0689 O.2       2 UNK        -0.5226 
     62 CA        -83.9610   26.8786  -75.5798 C.3       2 UNK         0.0269 
     63 CB        -85.4420   26.6420  -75.9198 C.3       2 UNK        -0.1926 
     64 N         -83.8787   27.8113  -74.4544 N.am      2 UNK        -0.4687 
     65 C         -82.7656   28.4608  -74.0837 C.2       1 UNK         0.5165 
     66 O         -81.7284   28.4658  -74.7487 O.2       1 UNK        -0.5079 
     67 H67       -86.7879   31.1297  -73.6490 H         1 UNK         0.0900 
     68 H68       -86.1265   32.2780  -72.4821 H         1 UNK         0.0900 
     69 H69       -86.5183   30.6334  -71.9771 H         1 UNK         0.0900 
     70 H70       -84.6972   29.3554  -71.7568 H         1 UNK         0.2959 
     71 H71       -82.1462   30.0828  -72.8390 H         1 UNK         0.1079 
     72 H72       -82.7185   27.3201  -71.6541 H         1 UNK         0.0837 
     73 H73       -82.7974   28.7178  -70.6299 H         1 UNK         0.0837 
     74 H74       -80.6214   26.0031  -71.6757 H         1 UNK         0.0685 
     75 H75       -80.3179   26.8640  -73.1650 H         1 UNK         0.0685 
     76 H76       -78.7833   24.7348  -70.8943 H         1 UNK         0.1434 
     77 H77       -74.7430   25.9255  -71.7113 H         1 UNK         0.1329 
     78 H78       -78.0066   28.3519  -73.0644 H         1 UNK         0.1335 
     79 H79       -75.7585   29.2048  -73.1793 H         1 UNK         0.0680 
     80 H80       -74.4586   28.3972  -72.3335 H         1 UNK         0.0680 
     81 H81       -72.8751   29.2600  -74.3461 H         1 UNK         0.1032 
     82 H82       -74.2818   30.0220  -75.0300 H         1 UNK         0.1032 
     83 H83       -72.8111   27.9550  -76.6890 H         1 UNK         0.0461 
     84 H84       -72.4755   30.0287  -78.8982 H         1 UNK         0.3453 
     85 H85       -74.0881   30.1425  -79.5607 H         1 UNK         0.3453 
     86 H86       -70.9214   28.9609  -76.6601 H         1 UNK         0.2984 
     87 H87       -69.6877   31.4545  -77.5619 H         1 UNK         0.0554 
     88 H88       -68.5499   32.9329  -75.8792 H         1 UNK         0.0847 
     89 H89       -69.8783   32.6593  -74.7523 H         1 UNK         0.0847 
     90 H90       -70.1677   33.4870  -76.2729 H         1 UNK         0.0847 
     91 H91       -68.4568   29.8174  -76.7508 H         1 UNK         0.3141 
     92 H92       -67.5956   28.2550  -75.5829 H         1 UNK         0.0743 
     93 H93       -67.3973   28.9030  -72.5889 H         1 UNK         0.0784 
     94 H94       -66.3392   27.8155  -73.4890 H         1 UNK         0.0784 
     95 H95       -66.3372   29.5361  -73.8397 H         1 UNK         0.0784 
     96 H96       -68.7954   26.9948  -73.3147 H         1 UNK         0.3213 
     97 H97       -70.2194   24.8735  -74.2416 H         1 UNK         0.0855 
     98 H98       -71.9739   25.4968  -72.5085 H         1 UNK         0.0814 
     99 H99       -71.7947   27.1882  -72.9675 H         1 UNK         0.0814 
    100 H100      -70.4523   26.3158  -72.2386 H         1 UNK         0.0814 
    101 H101      -72.8435   25.9752  -74.8726 H         1 UNK         0.3105 
    102 H102      -73.6746   25.6748  -77.2294 H         1 UNK         0.0547 
    103 H103      -73.1106   22.7631  -78.0022 H         1 UNK         0.0837 
    104 H104      -74.4001   23.7653  -78.6657 H         1 UNK         0.0837 
    105 H105      -72.7189   24.1897  -78.9459 H         1 UNK         0.0837 
    106 H106      -75.1561   24.9124  -75.7639 H         1 UNK         0.3020 
    107 H107      -76.0967   21.8962  -74.5228 H         1 UNK         0.1245 
    108 H108      -74.3264   21.9884  -72.8007 H         1 UNK         0.0781 
    109 H109      -74.5173   23.7076  -72.6257 H         1 UNK         0.0781 
    110 H110      -76.7913   23.7691  -69.6284 H         1 UNK         0.0836 
    111 H111      -75.1733   24.0656  -70.2047 H         1 UNK         0.0836 
    112 H112      -76.7746   24.5344  -73.6500 H         1 UNK         0.3022 
    113 H113      -78.8844   25.1654  -74.2081 H         1 UNK         0.0747 
    114 H114      -78.9050   27.1331  -75.7345 H         1 UNK         0.0793 
    115 H115      -77.2526   26.6428  -75.4214 H         1 UNK         0.0793 
    116 H116      -78.0036   26.2278  -76.9538 H         1 UNK         0.0793 
    117 H117      -80.2521   25.2132  -76.6771 H         1 UNK         0.3047 
    118 H118      -81.8455   23.2973  -77.2771 H         1 UNK         0.0822 
    119 H119      -83.9311   22.3330  -76.3026 H         1 UNK         0.0807 
    120 H120      -83.2969   22.5727  -74.6753 H         1 UNK         0.0807 
    121 H121      -82.5078   21.4514  -75.7726 H         1 UNK         0.0807 
    122 H122      -82.9950   25.1959  -77.2229 H         1 UNK         0.2946 
    123 H123      -83.4649   27.3302  -76.4422 H         1 UNK         0.1144 
    124 H124      -85.9456   27.5758  -76.1709 H         1 UNK         0.0793 
    125 H125      -85.9789   26.1837  -75.0881 H         1 UNK         0.0793 
    126 H126      -85.5470   25.9785  -76.7793 H         1 UNK         0.0793 
    127 H127      -84.6780   27.8509  -73.8395 H         1 UNK         0.2896 
@<TRIPOS>BOND
     1    1    2 1    
     2    1   67 1    
     3    1   68 1    
     4    1   69 1    
     5    2    3 2    
     6    2    4 am   BACKBONE|DICT|INTERRES
     7    4    5 1    
     8    4   70 1    
     9    5    6 1    
    10    5   65 1    
    11    5   71 1    
    12    6    7 1    
    13    6   72 1    
    14    6   73 1    
    15    7    8 1    
    16    8    9 1    
    17    8   74 1    
    18    8   75 1    
    19    9   10 ar   
    20    9   14 ar   
    21   10   11 ar   
    22   10   76 1    
    23   11   12 ar   
    24   11   48 1    
    25   12   13 ar   
    26   12   77 1    
    27   13   14 ar   
    28   13   15 1    
    29   14   78 1    
    30   15   16 1    
    31   15   79 1    
    32   15   80 1    
    33   16   17 1    
    34   17   18 1    
    35   17   81 1    
    36   17   82 1    
    37   18   19 1    
    38   18   22 1    
    39   18   83 1    
    40   19   20 am   BACKBONE|DICT|INTERRES
    41   19   21 2    
    42   20   84 1    
    43   20   85 1    
    44   22   23 am   BACKBONE|DICT|INTERRES
    45   22   86 1    
    46   23   24 2    
    47   23   25 1    
    48   25   26 1    
    49   25   27 1    
    50   25   87 1    
    51   26   88 1    
    52   26   89 1    
    53   26   90 1    
    54   27   28 am   BACKBONE|DICT|INTERRES
    55   27   91 1    
    56   28   29 2    
    57   28   30 1    
    58   30   31 1    
    59   30   32 1    
    60   30   92 1    
    61   31   93 1    
    62   31   94 1    
    63   31   95 1    
    64   32   33 am   BACKBONE|DICT|INTERRES
    65   32   96 1    
    66   33   34 2    
    67   33   35 1    
    68   35   36 1    
    69   35   37 1    
    70   35   97 1    
    71   36   98 1    
    72   36   99 1    
    73   36  100 1    
    74   37   38 am   BACKBONE|DICT|INTERRES
    75   37  101 1    
    76   38   39 2    
    77   38   40 1    
    78   40   41 1    
    79   40   42 1    
    80   40  102 1    
    81   41  103 1    
    82   41  104 1    
    83   41  105 1    
    84   42   43 am   BACKBONE|DICT|INTERRES
    85   42  106 1    
    86   43   44 2    
    87   43   45 1    
    88   45   46 1    
    89   45   49 1    
    90   45  107 1    
    91   46   47 1    
    92   46  108 1    
    93   46  109 1    
    94   47   48 1    
    95   48  110 1    
    96   48  111 1    
    97   49   50 am   BACKBONE|DICT|INTERRES
    98   49  112 1    
    99   50   51 2    
   100   50   52 1    
   101   52   53 1    
   102   52   54 1    
   103   52  113 1    
   104   53  114 1    
   105   53  115 1    
   106   53  116 1    
   107   54   55 am   BACKBONE|DICT|INTERRES
   108   54  117 1    
   109   55   56 2    
   110   55   57 1    
   111   57   58 1    
   112   57   59 1    
   113   57  118 1    
   114   58  119 1    
   115   58  120 1    
   116   58  121 1    
   117   59   60 am   BACKBONE|DICT|INTERRES
   118   59  122 1    
   119   60   61 2    
   120   60   62 1    
   121   62   63 1    
   122   62   64 1    
   123   62  123 1    
   124   63  124 1    
   125   63  125 1    
   126   63  126 1    
   127   64   65 am   BACKBONE|DICT|INTERRES
   128   64  127 1    
   129   65   66 2    
@<TRIPOS>SUBSTRUCTURE
     1 UNK         1 GROUP             0       ****    0 ROOT    
