@<TRIPOS>MOLECULE
3R135
127   129    1
SMALL
USER_CHARGES


@<TRIPOS>ATOM
      1 CA        -80.2239   25.0188  -69.8199 C.3       0 UNK        -0.1998 
      2 C         -81.5382   25.2190  -70.5572 C.2       0 UNK         0.4909 
      3 O         -82.4115   24.3532  -70.4968 O.2       0 UNK        -0.5240 
      4 N         -81.6902   26.3588  -71.2446 N.am      1 UNK        -0.4739 
      5 CA        -82.8837   26.7094  -72.0254 C.3       1 UNK         0.0864 
      6 C6        -82.9725   28.2344  -72.2969 C.3       11 UNK        -0.0881 
      7 S7        -81.5347   28.9078  -73.2019 S.3       11 UNK        -0.2682 
      8 C8        -80.6122   29.7668  -71.8877 C.3       11 UNK         0.0289 
      9 C9        -79.1206   29.6799  -72.1630 C.ar      11 UNK        -0.0687 
     10 C10       -78.3372   28.7338  -71.4965 C.ar      11 UNK        -0.0823 
     11 C11       -76.9859   28.5780  -71.8184 C.ar      11 UNK        -0.0830 
     12 C12       -76.4161   29.4053  -72.7913 C.ar      11 UNK        -0.1021 
     13 C13       -77.1754   30.3899  -73.4344 C.ar      11 UNK        -0.0753 
     14 C14       -78.5313   30.5150  -73.1169 C.ar      11 UNK        -0.0933 
     15 C15       -76.5693   31.2855  -74.5126 C.3       11 UNK         0.0166 
     16 S16       -74.8790   31.8624  -74.1245 S.3       11 UNK        -0.2615 
     17 C17       -73.9986   31.5470  -75.6990 C.3       11 UNK        -0.0865 
     18 CA        -72.5074   31.1525  -75.5198 C.3       10 UNK         0.0862 
     19 C         -71.6070   32.3836  -75.2034 C.2       10 UNK         0.5551 
     20 N         -70.8907   32.4180  -74.0858 N.am      10 UNK        -0.7319 
     21 O         -71.5463   33.3193  -75.9975 O.2       10 UNK        -0.5018 
     22 N         -72.3523   30.0152  -74.5979 N.am      10 UNK        -0.4509 
     23 C         -71.3319   29.1483  -74.6044 C.2       10 UNK         0.4899 
     24 O         -70.4172   29.1726  -75.4286 O.2       10 UNK        -0.4839 
     25 CA        -71.3051   28.0882  -73.4917 C.3       9 UNK         0.0222 
     26 CB        -72.2024   28.4240  -72.2829 C.3       9 UNK        -0.1966 
     27 N         -71.7113   26.7987  -74.0450 N.am      9 UNK        -0.4218 
     28 C         -70.8803   25.7978  -74.3617 C.2       9 UNK         0.5020 
     29 O         -69.6587   25.8346  -74.2027 O.2       9 UNK        -0.5274 
     30 CA        -71.5209   24.5242  -74.9386 C.3       8 UNK         0.0270 
     31 CB        -72.1795   23.6943  -73.8238 C.3       8 UNK        -0.1976 
     32 N         -72.4979   24.8019  -75.9939 N.am      8 UNK        -0.4313 
     33 C         -72.1845   25.2570  -77.2160 C.2       8 UNK         0.5041 
     34 O         -71.0308   25.4569  -77.5986 O.2       8 UNK        -0.5577 
     35 CA        -73.3500   25.5289  -78.1830 C.3       7 UNK         0.0284 
     36 CB        -73.8085   24.2286  -78.8627 C.3       7 UNK        -0.1958 
     37 N         -74.4895   26.1685  -77.5253 N.am      7 UNK        -0.4454 
     38 C         -74.4871   27.4210  -77.0497 C.2       7 UNK         0.5089 
     39 O         -73.5564   28.2105  -77.2008 O.2       7 UNK        -0.5125 
     40 CA        -75.7228   27.8621  -76.2466 C.3       6 UNK         0.0408 
     41 CB        -76.8067   28.4332  -77.1737 C.3       6 UNK        -0.1791 
     42 N         -76.2902   26.7896  -75.4277 N.am      6 UNK        -0.4762 
     43 C         -75.6575   26.2030  -74.4008 C.2       6 UNK         0.5007 
     44 O         -74.5235   26.5070  -74.0310 O.2       6 UNK        -0.5032 
     45 CA        -76.4022   25.0445  -73.7135 C.3       5 UNK         0.0783 
     46 C46       -77.4914   25.5657  -72.7427 C.3       11 UNK        -0.0857 
     47 S47       -76.8807   25.8586  -71.0482 S.3       11 UNK        -0.2512 
     48 C48       -76.1291   27.5231  -71.1242 C.3       11 UNK         0.0225 
     49 N         -76.9634   24.1347  -74.7142 N.am      5 UNK        -0.4615 
     50 C         -76.2351   23.3469  -75.5181 C.2       4 UNK         0.5053 
     51 O         -75.0085   23.2675  -75.4650 O.2       4 UNK        -0.5105 
     52 CA        -76.9956   22.5492  -76.5928 C.3       4 UNK         0.0263 
     53 CB        -77.4424   21.1886  -76.0361 C.3       4 UNK        -0.1981 
     54 N         -78.1586   23.2662  -77.1224 N.am      4 UNK        -0.4224 
     55 C         -78.0978   24.4346  -77.7778 C.2       3 UNK         0.4895 
     56 O         -77.0429   24.9889  -78.0821 O.2       3 UNK        -0.5091 
     57 CA        -79.4298   25.1311  -78.1073 C.3       3 UNK         0.0250 
     58 CB        -79.8581   24.8106  -79.5479 C.3       3 UNK        -0.1996 
     59 N         -80.5295   24.8114  -77.1877 N.am      3 UNK        -0.4254 
     60 C         -80.5298   25.0504  -75.8685 C.2       2 UNK         0.5004 
     61 O         -79.5669   25.5150  -75.2510 O.2       2 UNK        -0.5226 
     62 CA        -81.7961   24.6458  -75.1078 C.3       2 UNK         0.0269 
     63 CB        -81.7640   23.1483  -74.7547 C.3       2 UNK        -0.1926 
     64 N         -81.8851   25.4287  -73.8796 N.am      2 UNK        -0.4687 
     65 C         -83.0167   25.8783  -73.3222 C.2       1 UNK         0.5165 
     66 O         -84.1378   25.6538  -73.7823 O.2       1 UNK        -0.5079 
     67 H67       -79.6176   24.2699  -70.3286 H         1 UNK         0.0900 
     68 H68       -79.6491   25.9420  -69.7579 H         1 UNK         0.0900 
     69 H69       -80.4107   24.6730  -68.8036 H         1 UNK         0.0900 
     70 H70       -80.9382   27.0306  -71.2805 H         1 UNK         0.2959 
     71 H71       -83.7527   26.4464  -71.4174 H         1 UNK         0.1079 
     72 H72       -83.0923   28.7696  -71.3538 H         1 UNK         0.0837 
     73 H73       -83.8730   28.4637  -72.8701 H         1 UNK         0.0837 
     74 H74       -80.8396   29.3309  -70.9138 H         1 UNK         0.0685 
     75 H75       -80.9294   30.8097  -71.8424 H         1 UNK         0.0685 
     76 H76       -78.7835   28.0932  -70.7495 H         1 UNK         0.1434 
     77 H77       -75.3766   29.2795  -73.0546 H         1 UNK         0.1329 
     78 H78       -79.1408   31.2445  -73.6328 H         1 UNK         0.1335 
     79 H79       -77.1919   32.1690  -74.6618 H         1 UNK         0.0680 
     80 H80       -76.5897   30.7445  -75.4566 H         1 UNK         0.0680 
     81 H81       -74.0988   32.4245  -76.3408 H         1 UNK         0.1032 
     82 H82       -74.4967   30.7427  -76.2395 H         1 UNK         0.1032 
     83 H83       -72.1676   30.8089  -76.4990 H         1 UNK         0.0461 
     84 H84       -70.9334   31.6559  -73.4297 H         1 UNK         0.3453 
     85 H85       -70.3077   33.2180  -73.8962 H         1 UNK         0.3453 
     86 H86       -73.0536   29.9456  -73.8764 H         1 UNK         0.2984 
     87 H87       -70.2772   28.0382  -73.1270 H         1 UNK         0.0554 
     88 H88       -71.9417   29.3913  -71.8511 H         1 UNK         0.0847 
     89 H89       -72.0843   27.6811  -71.4939 H         1 UNK         0.0847 
     90 H90       -73.2575   28.4484  -72.5492 H         1 UNK         0.0847 
     91 H91       -72.7107   26.6719  -74.2002 H         1 UNK         0.3141 
     92 H92       -70.7215   23.9213  -75.3748 H         1 UNK         0.0743 
     93 H93       -71.4659   23.4704  -73.0297 H         1 UNK         0.0784 
     94 H94       -73.0202   24.2195  -73.3693 H         1 UNK         0.0784 
     95 H95       -72.5482   22.7420  -74.2053 H         1 UNK         0.0784 
     96 H96       -73.4689   24.5956  -75.7821 H         1 UNK         0.3213 
     97 H97       -72.9872   26.2074  -78.9583 H         1 UNK         0.0855 
     98 H98       -74.1844   23.5049  -78.1393 H         1 UNK         0.0814 
     99 H99       -72.9831   23.7569  -79.3973 H         1 UNK         0.0814 
    100 H100      -74.5999   24.4178  -79.5882 H         1 UNK         0.0814 
    101 H101      -75.3477   25.6277  -77.4538 H         1 UNK         0.3105 
    102 H102      -75.4024   28.6503  -75.5642 H         1 UNK         0.0547 
    103 H103      -77.6728   28.7781  -76.6086 H         1 UNK         0.0837 
    104 H104      -76.4252   29.2853  -77.7374 H         1 UNK         0.0837 
    105 H105      -77.1510   27.6946  -77.8977 H         1 UNK         0.0837 
    106 H106      -77.2171   26.4650  -75.6694 H         1 UNK         0.3020 
    107 H107      -75.6650   24.4746  -73.1428 H         1 UNK         0.1245 
    108 H108      -78.2748   24.8133  -72.6379 H         1 UNK         0.0781 
    109 H109      -78.0064   26.4452  -73.1326 H         1 UNK         0.0781 
    110 H110      -75.1585   27.4325  -71.6105 H         1 UNK         0.0836 
    111 H111      -75.9235   27.8575  -70.1067 H         1 UNK         0.0836 
    112 H112      -77.9605   24.2151  -74.8747 H         1 UNK         0.3022 
    113 H113      -76.3073   22.3718  -77.4217 H         1 UNK         0.0747 
    114 H114      -77.9098   20.5775  -76.8085 H         1 UNK         0.0793 
    115 H115      -76.5898   20.6261  -75.6526 H         1 UNK         0.0793 
    116 H116      -78.1546   21.2995  -75.2173 H         1 UNK         0.0793 
    117 H117      -79.0680   22.8760  -76.9246 H         1 UNK         0.3047 
    118 H118      -79.2522   26.2062  -78.0363 H         1 UNK         0.0822 
    119 H119      -80.7407   25.3815  -79.8370 H         1 UNK         0.0807 
    120 H120      -80.0843   23.7514  -79.6768 H         1 UNK         0.0807 
    121 H121      -79.0667   25.0631  -80.2556 H         1 UNK         0.0807 
    122 H122      -81.3556   24.4071  -77.6059 H         1 UNK         0.2946 
    123 H123      -82.6597   24.8566  -75.7433 H         1 UNK         0.1144 
    124 H124      -80.9044   22.9002  -74.1305 H         1 UNK         0.0793 
    125 H125      -81.7085   22.5308  -75.6520 H         1 UNK         0.0793 
    126 H126      -82.6632   22.8511  -74.2147 H         1 UNK         0.0793 
    127 H127      -80.9961   25.7193  -73.4938 H         1 UNK         0.2896 
@<TRIPOS>BOND
     1    1    2 1    
     2    1   67 1    
     3    1   68 1    
     4    1   69 1    
     5    2    3 2    
     6    2    4 am   BACKBONE|DICT|INTERRES
     7    4    5 1    
     8    4   70 1    
     9    5    6 1    
    10    5   65 1    
    11    5   71 1    
    12    6    7 1    
    13    6   72 1    
    14    6   73 1    
    15    7    8 1    
    16    8    9 1    
    17    8   74 1    
    18    8   75 1    
    19    9   10 ar   
    20    9   14 ar   
    21   10   11 ar   
    22   10   76 1    
    23   11   12 ar   
    24   11   48 1    
    25   12   13 ar   
    26   12   77 1    
    27   13   14 ar   
    28   13   15 1    
    29   14   78 1    
    30   15   16 1    
    31   15   79 1    
    32   15   80 1    
    33   16   17 1    
    34   17   18 1    
    35   17   81 1    
    36   17   82 1    
    37   18   19 1    
    38   18   22 1    
    39   18   83 1    
    40   19   20 am   BACKBONE|DICT|INTERRES
    41   19   21 2    
    42   20   84 1    
    43   20   85 1    
    44   22   23 am   BACKBONE|DICT|INTERRES
    45   22   86 1    
    46   23   24 2    
    47   23   25 1    
    48   25   26 1    
    49   25   27 1    
    50   25   87 1    
    51   26   88 1    
    52   26   89 1    
    53   26   90 1    
    54   27   28 am   BACKBONE|DICT|INTERRES
    55   27   91 1    
    56   28   29 2    
    57   28   30 1    
    58   30   31 1    
    59   30   32 1    
    60   30   92 1    
    61   31   93 1    
    62   31   94 1    
    63   31   95 1    
    64   32   33 am   BACKBONE|DICT|INTERRES
    65   32   96 1    
    66   33   34 2    
    67   33   35 1    
    68   35   36 1    
    69   35   37 1    
    70   35   97 1    
    71   36   98 1    
    72   36   99 1    
    73   36  100 1    
    74   37   38 am   BACKBONE|DICT|INTERRES
    75   37  101 1    
    76   38   39 2    
    77   38   40 1    
    78   40   41 1    
    79   40   42 1    
    80   40  102 1    
    81   41  103 1    
    82   41  104 1    
    83   41  105 1    
    84   42   43 am   BACKBONE|DICT|INTERRES
    85   42  106 1    
    86   43   44 2    
    87   43   45 1    
    88   45   46 1    
    89   45   49 1    
    90   45  107 1    
    91   46   47 1    
    92   46  108 1    
    93   46  109 1    
    94   47   48 1    
    95   48  110 1    
    96   48  111 1    
    97   49   50 am   BACKBONE|DICT|INTERRES
    98   49  112 1    
    99   50   51 2    
   100   50   52 1    
   101   52   53 1    
   102   52   54 1    
   103   52  113 1    
   104   53  114 1    
   105   53  115 1    
   106   53  116 1    
   107   54   55 am   BACKBONE|DICT|INTERRES
   108   54  117 1    
   109   55   56 2    
   110   55   57 1    
   111   57   58 1    
   112   57   59 1    
   113   57  118 1    
   114   58  119 1    
   115   58  120 1    
   116   58  121 1    
   117   59   60 am   BACKBONE|DICT|INTERRES
   118   59  122 1    
   119   60   61 2    
   120   60   62 1    
   121   62   63 1    
   122   62   64 1    
   123   62  123 1    
   124   63  124 1    
   125   63  125 1    
   126   63  126 1    
   127   64   65 am   BACKBONE|DICT|INTERRES
   128   64  127 1    
   129   65   66 2    
@<TRIPOS>SUBSTRUCTURE
     1 UNK         1 GROUP             0       ****    0 ROOT    
