@<TRIPOS>MOLECULE
3R135
127   129    1
SMALL
USER_CHARGES


@<TRIPOS>ATOM
      1 CA        -79.2765   31.4382  -74.6586 C.3       0 UNK        -0.1998 
      2 C         -79.8478   30.0371  -74.5166 C.2       0 UNK         0.4909 
      3 O         -80.9670   29.7807  -74.9595 O.2       0 UNK        -0.5240 
      4 N         -79.0766   29.1217  -73.9152 N.am      1 UNK        -0.4739 
      5 CA        -79.4164   27.7266  -73.5899 C.3       1 UNK         0.0864 
      6 C6        -80.6741   27.6139  -72.6835 C.3       11 UNK        -0.0881 
      7 S7        -80.5858   26.2407  -71.4852 S.3       11 UNK        -0.2682 
      8 C8        -79.8458   27.0615  -70.0322 C.3       11 UNK         0.0289 
      9 C9        -78.3529   27.2796  -70.2270 C.ar      11 UNK        -0.0687 
     10 C10       -77.4694   26.2123  -70.0508 C.ar      11 UNK        -0.0823 
     11 C11       -76.1059   26.3660  -70.3171 C.ar      11 UNK        -0.0830 
     12 C12       -75.6217   27.6092  -70.7351 C.ar      11 UNK        -0.1021 
     13 C13       -76.4960   28.6873  -70.9073 C.ar      11 UNK        -0.0753 
     14 C14       -77.8582   28.5224  -70.6346 C.ar      11 UNK        -0.0933 
     15 C15       -75.9809   30.0118  -71.4464 C.3       11 UNK         0.0166 
     16 S16       -75.9270   29.9660  -73.2638 S.3       11 UNK        -0.2615 
     17 C17       -75.6131   31.7185  -73.6802 C.3       11 UNK        -0.0865 
     18 CA        -74.1477   32.0227  -74.0906 C.3       10 UNK         0.0862 
     19 C         -73.2025   32.1623  -72.8597 C.2       10 UNK         0.5551 
     20 N         -72.0796   31.4588  -72.7820 N.am      10 UNK        -0.7319 
     21 O         -73.4902   32.9433  -71.9560 O.2       10 UNK        -0.5018 
     22 N         -73.6861   31.0935  -75.1316 N.am      10 UNK        -0.4509 
     23 C         -72.7561   31.3506  -76.0578 C.2       10 UNK         0.4899 
     24 O         -72.2400   32.4573  -76.2220 O.2       10 UNK        -0.4839 
     25 CA        -72.3258   30.1509  -76.9309 C.3       9 UNK         0.0222 
     26 CB        -70.9976   30.4015  -77.6753 C.3       9 UNK        -0.1966 
     27 N         -72.2640   28.8829  -76.1868 N.am      9 UNK        -0.4218 
     28 C         -71.5527   28.6397  -75.0715 C.2       9 UNK         0.5020 
     29 O         -70.8373   29.4763  -74.5194 O.2       9 UNK        -0.5274 
     30 CA        -71.6781   27.2477  -74.4299 C.3       8 UNK         0.0270 
     31 CB        -72.6177   27.3122  -73.2150 C.3       8 UNK        -0.1976 
     32 N         -72.1387   26.2147  -75.3621 N.am      8 UNK        -0.4313 
     33 C         -71.3784   25.7094  -76.3472 C.2       8 UNK         0.5041 
     34 O         -70.1983   26.0196  -76.5165 O.2       8 UNK        -0.5577 
     35 CA        -72.0173   24.6978  -77.3191 C.3       7 UNK         0.0284 
     36 CB        -71.5376   23.2723  -76.9986 C.3       7 UNK        -0.1958 
     37 N         -73.4813   24.7107  -77.3432 N.am      7 UNK        -0.4454 
     38 C         -74.2534   25.7408  -77.7163 C.2       7 UNK         0.5089 
     39 O         -73.8159   26.8259  -78.1012 O.2       7 UNK        -0.5125 
     40 CA        -75.7743   25.5363  -77.5750 C.3       6 UNK         0.0408 
     41 CB        -76.3527   24.9677  -78.8809 C.3       6 UNK        -0.1791 
     42 N         -76.1613   24.6704  -76.4495 N.am      6 UNK        -0.4762 
     43 C         -75.8279   24.8786  -75.1643 C.2       6 UNK         0.5007 
     44 O         -75.1369   25.8325  -74.8064 O.2       6 UNK        -0.5032 
     45 CA        -76.3317   23.8491  -74.1290 C.3       5 UNK         0.0783 
     46 C46       -76.3821   24.4013  -72.6815 C.3       11 UNK        -0.0857 
     47 S47       -74.7542   24.4730  -71.8563 S.3       11 UNK        -0.2512 
     48 C48       -75.1760   25.1640  -70.2188 C.3       11 UNK         0.0225 
     49 N         -77.6526   23.3537  -74.5193 N.am      5 UNK        -0.4615 
     50 C         -78.0134   22.0681  -74.5690 C.2       4 UNK         0.5053 
     51 O         -77.2161   21.1395  -74.4347 O.2       4 UNK        -0.5105 
     52 CA        -79.5005   21.7339  -74.7740 C.3       4 UNK         0.0263 
     53 CB        -80.1252   21.2541  -73.4495 C.3       4 UNK        -0.1981 
     54 N         -80.3088   22.8304  -75.3260 N.am      4 UNK        -0.4224 
     55 C         -81.4084   22.6319  -76.0716 C.2       3 UNK         0.4895 
     56 O         -81.8081   21.5168  -76.4112 O.2       3 UNK        -0.5091 
     57 CA        -82.2307   23.8622  -76.5042 C.3       3 UNK         0.0250 
     58 CB        -83.4122   24.0759  -75.5436 C.3       3 UNK        -0.1996 
     59 N         -81.4582   25.1008  -76.5871 N.am      3 UNK        -0.4254 
     60 C         -80.4824   25.3429  -77.4713 C.2       2 UNK         0.5004 
     61 O         -80.1774   24.5697  -78.3794 O.2       2 UNK        -0.5226 
     62 CA        -79.6953   26.6573  -77.3118 C.3       2 UNK         0.0269 
     63 CB        -80.0993   27.6642  -78.4002 C.3       2 UNK        -0.1926 
     64 N         -79.7908   27.3126  -76.0005 N.am      2 UNK        -0.4687 
     65 C         -79.4711   26.7834  -74.8117 C.2       1 UNK         0.5165 
     66 O         -79.1993   25.5919  -74.6641 O.2       1 UNK        -0.5079 
     67 H67       -80.0790   32.1733  -74.7148 H         1 UNK         0.0900 
     68 H68       -78.6496   31.6948  -73.8052 H         1 UNK         0.0900 
     69 H69       -78.6798   31.5132  -75.5671 H         1 UNK         0.0900 
     70 H70       -78.1412   29.3942  -73.6349 H         1 UNK         0.2959 
     71 H71       -78.5546   27.3746  -73.0224 H         1 UNK         0.1079 
     72 H72       -80.8168   28.5352  -72.1170 H         1 UNK         0.0837 
     73 H73       -81.5814   27.5060  -73.2809 H         1 UNK         0.0837 
     74 H74       -80.0087   26.4350  -69.1540 H         1 UNK         0.0685 
     75 H75       -80.3568   28.0044  -69.8315 H         1 UNK         0.0685 
     76 H76       -77.8551   25.2461  -69.7549 H         1 UNK         0.1434 
     77 H77       -74.5725   27.7248  -70.9699 H         1 UNK         0.1329 
     78 H78       -78.5406   29.3471  -70.7883 H         1 UNK         0.1335 
     79 H79       -76.6244   30.8282  -71.1148 H         1 UNK         0.0680 
     80 H80       -74.9833   30.2187  -71.0559 H         1 UNK         0.0680 
     81 H81       -75.9421   32.3678  -72.8665 H         1 UNK         0.1032 
     82 H82       -76.2624   31.9685  -74.5198 H         1 UNK         0.1032 
     83 H83       -74.1586   33.0190  -74.5368 H         1 UNK         0.0461 
     84 H84       -71.4865   31.5776  -71.9769 H         1 UNK         0.3453 
     85 H85       -71.7940   30.8257  -73.5222 H         1 UNK         0.3453 
     86 H86       -74.0467   30.1535  -75.0545 H         1 UNK         0.2984 
     87 H87       -73.1071   30.0248  -77.6817 H         1 UNK         0.0554 
     88 H88       -71.0714   31.2716  -78.3288 H         1 UNK         0.0847 
     89 H89       -70.7272   29.5505  -78.3006 H         1 UNK         0.0847 
     90 H90       -70.1748   30.5831  -76.9829 H         1 UNK         0.0847 
     91 H91       -72.8160   28.1251  -76.5731 H         1 UNK         0.3141 
     92 H92       -70.6857   26.9656  -74.0714 H         1 UNK         0.0743 
     93 H93       -72.2775   28.0577  -72.4948 H         1 UNK         0.0784 
     94 H94       -73.6360   27.5803  -73.4996 H         1 UNK         0.0784 
     95 H95       -72.6533   26.3562  -72.6945 H         1 UNK         0.0784 
     96 H96       -73.1089   25.9264  -75.2773 H         1 UNK         0.3213 
     97 H97       -71.6719   24.9586  -78.3218 H         1 UNK         0.0855 
     98 H98       -71.8722   22.9457  -76.0131 H         1 UNK         0.0814 
     99 H99       -70.4480   23.2156  -77.0070 H         1 UNK         0.0814 
    100 H100      -71.9011   22.5544  -77.7341 H         1 UNK         0.0814 
    101 H101      -73.9456   23.8698  -77.0327 H         1 UNK         0.3105 
    102 H102      -76.2179   26.5181  -77.3981 H         1 UNK         0.0547 
    103 H103      -77.4360   24.8638  -78.8342 H         1 UNK         0.0837 
    104 H104      -75.9355   23.9873  -79.1140 H         1 UNK         0.0837 
    105 H105      -76.1291   25.6238  -79.7233 H         1 UNK         0.0837 
    106 H106      -76.7314   23.8649  -76.6661 H         1 UNK         0.3020 
    107 H107      -75.6111   23.0287  -74.1560 H         1 UNK         0.1245 
    108 H108      -77.0201   23.7695  -72.0612 H         1 UNK         0.0781 
    109 H109      -76.8473   25.3884  -72.6805 H         1 UNK         0.0781 
    110 H110      -74.2568   25.4529  -69.7074 H         1 UNK         0.0836 
    111 H111      -75.6285   24.3791  -69.6107 H         1 UNK         0.0836 
    112 H112      -78.3444   24.0925  -74.6355 H         1 UNK         0.3022 
    113 H113      -79.5139   20.8998  -75.4792 H         1 UNK         0.0747 
    114 H114      -81.1378   20.8791  -73.5988 H         1 UNK         0.0793 
    115 H115      -79.5444   20.4417  -73.0102 H         1 UNK         0.0793 
    116 H116      -80.1706   22.0590  -72.7147 H         1 UNK         0.0793 
    117 H117      -80.0448   23.7799  -75.0869 H         1 UNK         0.3047 
    118 H118      -82.6309   23.6519  -77.4985 H         1 UNK         0.0822 
    119 H119      -84.0576   24.8872  -75.8809 H         1 UNK         0.0807 
    120 H120      -83.0739   24.3117  -74.5336 H         1 UNK         0.0807 
    121 H121      -84.0302   23.1791  -75.4789 H         1 UNK         0.0807 
    122 H122      -81.6339   25.7983  -75.8789 H         1 UNK         0.2946 
    123 H123      -78.6450   26.4039  -77.4566 H         1 UNK         0.1144 
    124 H124      -79.4618   28.5484  -78.3800 H         1 UNK         0.0793 
    125 H125      -81.1327   27.9919  -78.2803 H         1 UNK         0.0793 
    126 H126      -80.0085   27.2256  -79.3952 H         1 UNK         0.0793 
    127 H127      -80.0830   28.2840  -75.9953 H         1 UNK         0.2896 
@<TRIPOS>BOND
     1    1    2 1    
     2    1   67 1    
     3    1   68 1    
     4    1   69 1    
     5    2    3 2    
     6    2    4 am   BACKBONE|DICT|INTERRES
     7    4    5 1    
     8    4   70 1    
     9    5    6 1    
    10    5   65 1    
    11    5   71 1    
    12    6    7 1    
    13    6   72 1    
    14    6   73 1    
    15    7    8 1    
    16    8    9 1    
    17    8   74 1    
    18    8   75 1    
    19    9   10 ar   
    20    9   14 ar   
    21   10   11 ar   
    22   10   76 1    
    23   11   12 ar   
    24   11   48 1    
    25   12   13 ar   
    26   12   77 1    
    27   13   14 ar   
    28   13   15 1    
    29   14   78 1    
    30   15   16 1    
    31   15   79 1    
    32   15   80 1    
    33   16   17 1    
    34   17   18 1    
    35   17   81 1    
    36   17   82 1    
    37   18   19 1    
    38   18   22 1    
    39   18   83 1    
    40   19   20 am   BACKBONE|DICT|INTERRES
    41   19   21 2    
    42   20   84 1    
    43   20   85 1    
    44   22   23 am   BACKBONE|DICT|INTERRES
    45   22   86 1    
    46   23   24 2    
    47   23   25 1    
    48   25   26 1    
    49   25   27 1    
    50   25   87 1    
    51   26   88 1    
    52   26   89 1    
    53   26   90 1    
    54   27   28 am   BACKBONE|DICT|INTERRES
    55   27   91 1    
    56   28   29 2    
    57   28   30 1    
    58   30   31 1    
    59   30   32 1    
    60   30   92 1    
    61   31   93 1    
    62   31   94 1    
    63   31   95 1    
    64   32   33 am   BACKBONE|DICT|INTERRES
    65   32   96 1    
    66   33   34 2    
    67   33   35 1    
    68   35   36 1    
    69   35   37 1    
    70   35   97 1    
    71   36   98 1    
    72   36   99 1    
    73   36  100 1    
    74   37   38 am   BACKBONE|DICT|INTERRES
    75   37  101 1    
    76   38   39 2    
    77   38   40 1    
    78   40   41 1    
    79   40   42 1    
    80   40  102 1    
    81   41  103 1    
    82   41  104 1    
    83   41  105 1    
    84   42   43 am   BACKBONE|DICT|INTERRES
    85   42  106 1    
    86   43   44 2    
    87   43   45 1    
    88   45   46 1    
    89   45   49 1    
    90   45  107 1    
    91   46   47 1    
    92   46  108 1    
    93   46  109 1    
    94   47   48 1    
    95   48  110 1    
    96   48  111 1    
    97   49   50 am   BACKBONE|DICT|INTERRES
    98   49  112 1    
    99   50   51 2    
   100   50   52 1    
   101   52   53 1    
   102   52   54 1    
   103   52  113 1    
   104   53  114 1    
   105   53  115 1    
   106   53  116 1    
   107   54   55 am   BACKBONE|DICT|INTERRES
   108   54  117 1    
   109   55   56 2    
   110   55   57 1    
   111   57   58 1    
   112   57   59 1    
   113   57  118 1    
   114   58  119 1    
   115   58  120 1    
   116   58  121 1    
   117   59   60 am   BACKBONE|DICT|INTERRES
   118   59  122 1    
   119   60   61 2    
   120   60   62 1    
   121   62   63 1    
   122   62   64 1    
   123   62  123 1    
   124   63  124 1    
   125   63  125 1    
   126   63  126 1    
   127   64   65 am   BACKBONE|DICT|INTERRES
   128   64  127 1    
   129   65   66 2    
@<TRIPOS>SUBSTRUCTURE
     1 UNK         1 GROUP             0       ****    0 ROOT    
