@<TRIPOS>MOLECULE
3R135
127   129    1
SMALL
USER_CHARGES


@<TRIPOS>ATOM
      1 CA        -81.7201   31.7069  -75.4273 C.3       0 UNK        -0.1998 
      2 C         -81.6736   30.2675  -74.9360 C.2       0 UNK         0.4909 
      3 O         -82.5474   29.4758  -75.2922 O.2       0 UNK        -0.5240 
      4 N         -80.6622   29.9346  -74.1212 N.am      1 UNK        -0.4739 
      5 CA        -80.3990   28.6045  -73.5489 C.3       1 UNK         0.0864 
      6 C6        -81.5010   28.1138  -72.5600 C.3       11 UNK        -0.0881 
      7 S7        -81.9600   29.3693  -71.3106 S.3       11 UNK        -0.2682 
      8 C8        -81.0223   28.8428  -69.8403 C.3       11 UNK         0.0289 
      9 C9        -79.5168   28.8712  -70.0662 C.ar      11 UNK        -0.0687 
     10 C10       -78.7754   27.6913  -69.9771 C.ar      11 UNK        -0.0823 
     11 C11       -77.3958   27.7052  -70.1936 C.ar      11 UNK        -0.0830 
     12 C12       -76.7554   28.9132  -70.4790 C.ar      11 UNK        -0.1021 
     13 C13       -77.4827   30.1057  -70.5888 C.ar      11 UNK        -0.0753 
     14 C14       -78.8640   30.0718  -70.3669 C.ar      11 UNK        -0.0933 
     15 C15       -76.8425   31.4491  -70.9553 C.3       11 UNK         0.0166 
     16 S16       -75.0326   31.4550  -71.2228 S.3       11 UNK        -0.2615 
     17 C17       -74.8790   30.5823  -72.8216 C.3       11 UNK        -0.0865 
     18 CA        -73.4624   29.9904  -73.0459 C.3       10 UNK         0.0862 
     19 C         -73.1627   28.7876  -72.1153 C.2       10 UNK         0.5551 
     20 N         -72.2708   28.9511  -71.1484 N.am      10 UNK        -0.7319 
     21 O         -73.7521   27.7178  -72.2449 O.2       10 UNK        -0.5018 
     22 N         -73.3028   29.5601  -74.4360 N.am      10 UNK        -0.4509 
     23 C         -72.4970   30.1150  -75.3469 C.2       10 UNK         0.4899 
     24 O         -71.8265   31.1296  -75.1476 O.2       10 UNK        -0.4839 
     25 CA        -72.4349   29.3985  -76.7107 C.3       9 UNK         0.0222 
     26 CB        -71.3856   29.9986  -77.6705 C.3       9 UNK        -0.1966 
     27 N         -72.2532   27.9488  -76.5703 N.am      9 UNK        -0.4218 
     28 C         -71.2263   27.2998  -75.9991 C.2       9 UNK         0.5020 
     29 O         -70.2204   27.8561  -75.5563 O.2       9 UNK        -0.5274 
     30 CA        -71.3359   25.7671  -75.8735 C.3       8 UNK         0.0270 
     31 CB        -71.6086   25.3787  -74.4108 C.3       8 UNK        -0.1976 
     32 N         -72.3698   25.1699  -76.7249 N.am      8 UNK        -0.4313 
     33 C         -72.2884   25.0356  -78.0561 C.2       8 UNK         0.5041 
     34 O         -71.2949   25.3420  -78.7161 O.2       8 UNK        -0.5577 
     35 CA        -73.5434   24.5088  -78.7771 C.3       7 UNK         0.0284 
     36 CB        -73.6145   22.9746  -78.7138 C.3       7 UNK        -0.1958 
     37 N         -74.7832   25.0841  -78.2461 N.am      7 UNK        -0.4454 
     38 C         -75.1060   26.3850  -78.3085 C.2       7 UNK         0.5089 
     39 O         -74.4234   27.2377  -78.8748 O.2       7 UNK        -0.5125 
     40 CA        -76.3739   26.8174  -77.5594 C.3       6 UNK         0.0408 
     41 CB        -77.6302   26.5638  -78.4094 C.3       6 UNK        -0.1791 
     42 N         -76.4772   26.1427  -76.2629 N.am      6 UNK        -0.4762 
     43 C         -75.7253   26.4577  -75.1960 C.2       6 UNK         0.5007 
     44 O         -74.9143   27.3819  -75.1946 O.2       6 UNK        -0.5032 
     45 CA        -75.8753   25.5844  -73.9323 C.3       5 UNK         0.0783 
     46 C46       -76.9113   26.2074  -72.9734 C.3       11 UNK        -0.0857 
     47 S47       -77.1405   25.2388  -71.4414 S.3       11 UNK        -0.2512 
     48 C48       -76.5961   26.4102  -70.1559 C.3       11 UNK         0.0225 
     49 N         -76.2044   24.1951  -74.2542 N.am      5 UNK        -0.4615 
     50 C         -75.3932   23.3402  -74.8860 C.2       4 UNK         0.5053 
     51 O         -74.2558   23.6221  -75.2578 O.2       4 UNK        -0.5105 
     52 CA        -75.9883   21.9626  -75.2179 C.3       4 UNK         0.0263 
     53 CB        -75.8098   20.9980  -74.0353 C.3       4 UNK        -0.1981 
     54 N         -77.4071   22.0334  -75.5915 N.am      4 UNK        -0.4224 
     55 C         -77.8749   22.7142  -76.6490 C.2       3 UNK         0.4895 
     56 O         -77.1560   23.3576  -77.4134 O.2       3 UNK        -0.5091 
     57 CA        -79.3945   22.7307  -76.8634 C.3       3 UNK         0.0250 
     58 CB        -79.8378   21.4646  -77.6129 C.3       3 UNK        -0.1996 
     59 N         -80.1307   22.8285  -75.5957 N.am      3 UNK        -0.4254 
     60 C         -80.5597   23.9340  -74.9650 C.2       2 UNK         0.5004 
     61 O         -81.1198   23.8663  -73.8696 O.2       2 UNK        -0.5226 
     62 CA        -80.3966   25.3193  -75.6186 C.3       2 UNK         0.0269 
     63 CB        -81.4717   25.5556  -76.7006 C.3       2 UNK        -0.1926 
     64 N         -80.5377   26.3535  -74.5923 N.am      2 UNK        -0.4687 
     65 C         -80.0520   27.5987  -74.6746 C.2       1 UNK         0.5165 
     66 O         -79.3312   27.9714  -75.6023 O.2       1 UNK        -0.5079 
     67 H67       -82.6545   32.1769  -75.1216 H         1 UNK         0.0900 
     68 H68       -81.6644   31.7336  -76.5152 H         1 UNK         0.0900 
     69 H69       -80.8968   32.3009  -75.0308 H         1 UNK         0.0900 
     70 H70       -79.9720   30.6357  -73.8940 H         1 UNK         0.2959 
     71 H71       -79.4768   28.7097  -72.9754 H         1 UNK         0.1079 
     72 H72       -82.4104   27.8497  -73.1028 H         1 UNK         0.0837 
     73 H73       -81.1792   27.2080  -72.0430 H         1 UNK         0.0837 
     74 H74       -81.2672   29.5078  -69.0111 H         1 UNK         0.0685 
     75 H75       -81.3573   27.8475  -69.5437 H         1 UNK         0.0685 
     76 H76       -79.2705   26.7550  -69.7578 H         1 UNK         0.1434 
     77 H77       -75.6878   28.9044  -70.6352 H         1 UNK         0.1329 
     78 H78       -79.4417   30.9832  -70.4436 H         1 UNK         0.1335 
     79 H79       -77.0598   32.1592  -70.1561 H         1 UNK         0.0680 
     80 H80       -77.3255   31.8401  -71.8521 H         1 UNK         0.0680 
     81 H81       -75.1018   31.3067  -73.6065 H         1 UNK         0.1032 
     82 H82       -75.6409   29.8060  -72.9115 H         1 UNK         0.1032 
     83 H83       -72.7341   30.7746  -72.8290 H         1 UNK         0.0461 
     84 H84       -71.7964   29.8313  -71.0213 H         1 UNK         0.3453 
     85 H85       -72.0736   28.1804  -70.5301 H         1 UNK         0.3453 
     86 H86       -73.8067   28.7073  -74.6804 H         1 UNK         0.2984 
     87 H87       -73.4149   29.5345  -77.1707 H         1 UNK         0.0554 
     88 H88       -71.3882   29.4832  -78.6309 H         1 UNK         0.0847 
     89 H89       -70.3771   29.9392  -77.2602 H         1 UNK         0.0847 
     90 H90       -71.5940   31.0509  -77.8671 H         1 UNK         0.0847 
     91 H91       -73.0367   27.3894  -76.8801 H         1 UNK         0.3141 
     92 H92       -70.3714   25.3461  -76.1651 H         1 UNK         0.0743 
     93 H93       -72.5564   25.7868  -74.0582 H         1 UNK         0.0784 
     94 H94       -71.6408   24.2963  -74.2846 H         1 UNK         0.0784 
     95 H95       -70.8272   25.7590  -73.7514 H         1 UNK         0.0784 
     96 H96       -73.1867   24.7903  -76.2493 H         1 UNK         0.3213 
     97 H97       -73.4676   24.8016  -79.8266 H         1 UNK         0.0855 
     98 H98       -73.6884   22.6121  -77.6885 H         1 UNK         0.0814 
     99 H99       -72.7226   22.5262  -79.1533 H         1 UNK         0.0814 
    100 H100      -74.4745   22.5941  -79.2654 H         1 UNK         0.0814 
    101 H101      -75.4328   24.4490  -77.7936 H         1 UNK         0.3105 
    102 H102      -76.3093   27.8932  -77.3805 H         1 UNK         0.0547 
    103 H103      -77.5740   27.1142  -79.3493 H         1 UNK         0.0837 
    104 H104      -77.7562   25.5121  -78.6630 H         1 UNK         0.0837 
    105 H105      -78.5323   26.8983  -77.8989 H         1 UNK         0.0837 
    106 H106      -77.0595   25.3195  -76.2234 H         1 UNK         0.3020 
    107 H107      -74.9063   25.5847  -73.4282 H         1 UNK         0.1245 
    108 H108      -77.8832   26.2774  -73.4585 H         1 UNK         0.0781 
    109 H109      -76.6181   27.2293  -72.7299 H         1 UNK         0.0781 
    110 H110      -75.5295   26.6026  -70.2843 H         1 UNK         0.0836 
    111 H111      -76.7105   25.9445  -69.1762 H         1 UNK         0.0836 
    112 H112      -77.1081   23.8677  -73.9477 H         1 UNK         0.3022 
    113 H113      -75.4379   21.5637  -76.0727 H         1 UNK         0.0747 
    114 H114      -76.1521   19.9940  -74.2867 H         1 UNK         0.0793 
    115 H115      -74.7586   20.9184  -73.7537 H         1 UNK         0.0793 
    116 H116      -76.3588   21.3302  -73.1532 H         1 UNK         0.0793 
    117 H117      -78.0577   21.5303  -75.0065 H         1 UNK         0.3047 
    118 H118      -79.6163   23.5784  -77.5103 H         1 UNK         0.0822 
    119 H119      -80.9037   21.4936  -77.8403 H         1 UNK         0.0807 
    120 H120      -79.6433   20.5583  -77.0379 H         1 UNK         0.0807 
    121 H121      -79.3091   21.3676  -78.5625 H         1 UNK         0.0807 
    122 H122      -80.3183   21.9477  -75.1391 H         1 UNK         0.2946 
    123 H123      -79.3997   25.3880  -76.0554 H         1 UNK         0.1144 
    124 H124      -82.4706   25.5974  -76.2645 H         1 UNK         0.0793 
    125 H125      -81.4878   24.7673  -77.4522 H         1 UNK         0.0793 
    126 H126      -81.3023   26.4957  -77.2262 H         1 UNK         0.0793 
    127 H127      -81.0704   26.0602  -73.7827 H         1 UNK         0.2896 
@<TRIPOS>BOND
     1    1    2 1    
     2    1   67 1    
     3    1   68 1    
     4    1   69 1    
     5    2    3 2    
     6    2    4 am   BACKBONE|DICT|INTERRES
     7    4    5 1    
     8    4   70 1    
     9    5    6 1    
    10    5   65 1    
    11    5   71 1    
    12    6    7 1    
    13    6   72 1    
    14    6   73 1    
    15    7    8 1    
    16    8    9 1    
    17    8   74 1    
    18    8   75 1    
    19    9   10 ar   
    20    9   14 ar   
    21   10   11 ar   
    22   10   76 1    
    23   11   12 ar   
    24   11   48 1    
    25   12   13 ar   
    26   12   77 1    
    27   13   14 ar   
    28   13   15 1    
    29   14   78 1    
    30   15   16 1    
    31   15   79 1    
    32   15   80 1    
    33   16   17 1    
    34   17   18 1    
    35   17   81 1    
    36   17   82 1    
    37   18   19 1    
    38   18   22 1    
    39   18   83 1    
    40   19   20 am   BACKBONE|DICT|INTERRES
    41   19   21 2    
    42   20   84 1    
    43   20   85 1    
    44   22   23 am   BACKBONE|DICT|INTERRES
    45   22   86 1    
    46   23   24 2    
    47   23   25 1    
    48   25   26 1    
    49   25   27 1    
    50   25   87 1    
    51   26   88 1    
    52   26   89 1    
    53   26   90 1    
    54   27   28 am   BACKBONE|DICT|INTERRES
    55   27   91 1    
    56   28   29 2    
    57   28   30 1    
    58   30   31 1    
    59   30   32 1    
    60   30   92 1    
    61   31   93 1    
    62   31   94 1    
    63   31   95 1    
    64   32   33 am   BACKBONE|DICT|INTERRES
    65   32   96 1    
    66   33   34 2    
    67   33   35 1    
    68   35   36 1    
    69   35   37 1    
    70   35   97 1    
    71   36   98 1    
    72   36   99 1    
    73   36  100 1    
    74   37   38 am   BACKBONE|DICT|INTERRES
    75   37  101 1    
    76   38   39 2    
    77   38   40 1    
    78   40   41 1    
    79   40   42 1    
    80   40  102 1    
    81   41  103 1    
    82   41  104 1    
    83   41  105 1    
    84   42   43 am   BACKBONE|DICT|INTERRES
    85   42  106 1    
    86   43   44 2    
    87   43   45 1    
    88   45   46 1    
    89   45   49 1    
    90   45  107 1    
    91   46   47 1    
    92   46  108 1    
    93   46  109 1    
    94   47   48 1    
    95   48  110 1    
    96   48  111 1    
    97   49   50 am   BACKBONE|DICT|INTERRES
    98   49  112 1    
    99   50   51 2    
   100   50   52 1    
   101   52   53 1    
   102   52   54 1    
   103   52  113 1    
   104   53  114 1    
   105   53  115 1    
   106   53  116 1    
   107   54   55 am   BACKBONE|DICT|INTERRES
   108   54  117 1    
   109   55   56 2    
   110   55   57 1    
   111   57   58 1    
   112   57   59 1    
   113   57  118 1    
   114   58  119 1    
   115   58  120 1    
   116   58  121 1    
   117   59   60 am   BACKBONE|DICT|INTERRES
   118   59  122 1    
   119   60   61 2    
   120   60   62 1    
   121   62   63 1    
   122   62   64 1    
   123   62  123 1    
   124   63  124 1    
   125   63  125 1    
   126   63  126 1    
   127   64   65 am   BACKBONE|DICT|INTERRES
   128   64  127 1    
   129   65   66 2    
@<TRIPOS>SUBSTRUCTURE
     1 UNK         1 GROUP             0       ****    0 ROOT    
