@<TRIPOS>MOLECULE
3R135
127   129    1
SMALL
USER_CHARGES


@<TRIPOS>ATOM
      1 CA        -81.0560   25.3478  -69.5822 C.3       0 UNK        -0.1998 
      2 C         -82.0173   25.9506  -70.5955 C.2       0 UNK         0.4909 
      3 O         -83.2311   25.8172  -70.4392 O.2       0 UNK        -0.5240 
      4 N         -81.4804   26.6014  -71.6350 N.am      1 UNK        -0.4739 
      5 CA        -82.2426   27.2426  -72.7188 C.3       1 UNK         0.0864 
      6 C6        -81.7751   28.7002  -72.9815 C.3       11 UNK        -0.0881 
      7 S7        -82.0415   29.7661  -71.5176 S.3       11 UNK        -0.2682 
      8 C8        -80.6867   30.9902  -71.6494 C.3       11 UNK         0.0289 
      9 C9        -79.2624   30.4651  -71.4434 C.ar      11 UNK        -0.0687 
     10 C10       -78.9845   29.1432  -71.0710 C.ar      11 UNK        -0.0823 
     11 C11       -77.6693   28.6813  -70.9943 C.ar      11 UNK        -0.0830 
     12 C12       -76.6174   29.5740  -71.1985 C.ar      11 UNK        -0.1021 
     13 C13       -76.8711   30.9042  -71.5349 C.ar      11 UNK        -0.0753 
     14 C14       -78.1930   31.3415  -71.6646 C.ar      11 UNK        -0.0933 
     15 C15       -75.7059   31.8483  -71.7767 C.3       11 UNK         0.0166 
     16 S16       -74.9643   31.5611  -73.4161 S.3       11 UNK        -0.2615 
     17 C17       -73.1797   31.7118  -73.0430 C.3       11 UNK        -0.0865 
     18 CA        -72.4052   30.3620  -73.0616 C.3       10 UNK         0.0862 
     19 C         -72.8344   29.3654  -71.9523 C.2       10 UNK         0.5551 
     20 N         -72.6718   29.7377  -70.6897 N.am      10 UNK        -0.7319 
     21 O         -73.3091   28.2619  -72.2165 O.2       10 UNK        -0.5018 
     22 N         -72.4130   29.7273  -74.3828 N.am      10 UNK        -0.4509 
     23 C         -71.6187   30.0654  -75.4029 C.2       10 UNK         0.4899 
     24 O         -70.8262   31.0090  -75.3703 O.2       10 UNK        -0.4839 
     25 CA        -71.7261   29.1900  -76.6642 C.3       9 UNK         0.0222 
     26 CB        -70.5988   29.4469  -77.6864 C.3       9 UNK        -0.1966 
     27 N         -71.8305   27.7631  -76.3449 N.am      9 UNK        -0.4218 
     28 C         -70.9405   26.9854  -75.7097 C.2       9 UNK         0.5020 
     29 O         -69.8419   27.3718  -75.3084 O.2       9 UNK        -0.5274 
     30 CA        -71.3473   25.5176  -75.4749 C.3       8 UNK         0.0270 
     31 CB        -71.8994   25.3411  -74.0510 C.3       8 UNK        -0.1976 
     32 N         -72.3351   25.0279  -76.4427 N.am      8 UNK        -0.4313 
     33 C         -72.0854   24.8202  -77.7443 C.2       8 UNK         0.5041 
     34 O         -70.9660   24.9099  -78.2502 O.2       8 UNK        -0.5577 
     35 CA        -73.2920   24.4962  -78.6417 C.3       7 UNK         0.0284 
     36 CB        -73.6522   23.0046  -78.5564 C.3       7 UNK        -0.1958 
     37 N         -74.4678   25.3112  -78.3222 N.am      7 UNK        -0.4454 
     38 C         -74.5450   26.6415  -78.4753 C.2       7 UNK         0.5089 
     39 O         -73.6506   27.3290  -78.9657 O.2       7 UNK        -0.5125 
     40 CA        -75.8160   27.3314  -77.9522 C.3       6 UNK         0.0408 
     41 CB        -76.9445   27.2730  -78.9936 C.3       6 UNK        -0.1791 
     42 N         -76.2749   26.7612  -76.6838 N.am      6 UNK        -0.4762 
     43 C         -75.6342   26.8971  -75.5122 C.2       6 UNK         0.5007 
     44 O         -74.6084   27.5629  -75.3683 O.2       6 UNK        -0.5032 
     45 CA        -76.2212   26.1270  -74.3124 C.3       5 UNK         0.0783 
     46 C46       -77.3286   26.9634  -73.6314 C.3       11 UNK        -0.0857 
     47 S47       -78.0278   26.1700  -72.1367 S.3       11 UNK        -0.2512 
     48 C48       -77.3793   27.2031  -70.7747 C.3       11 UNK         0.0225 
     49 N         -76.6947   24.8001  -74.7188 N.am      5 UNK        -0.4615 
     50 C         -75.8921   23.7961  -75.0996 C.2       4 UNK         0.5053 
     51 O         -74.6646   23.8790  -75.1236 O.2       4 UNK        -0.5105 
     52 CA        -76.5661   22.4982  -75.5824 C.3       4 UNK         0.0263 
     53 CB        -76.8604   21.5730  -74.3914 C.3       4 UNK        -0.1981 
     54 N         -77.8019   22.7341  -76.3329 N.am      4 UNK        -0.4224 
     55 C         -77.8873   23.4468  -77.4657 C.2       3 UNK         0.4895 
     56 O         -76.9076   23.8919  -78.0608 O.2       3 UNK        -0.5091 
     57 CA        -79.2943   23.7672  -78.0057 C.3       3 UNK         0.0250 
     58 CB        -79.6402   22.8356  -79.1779 C.3       3 UNK        -0.1996 
     59 N         -80.3683   23.7086  -77.0049 N.am      3 UNK        -0.4254 
     60 C         -80.4240   24.4319  -75.8769 C.2       2 UNK         0.5004 
     61 O         -79.5469   25.2275  -75.5314 O.2       2 UNK        -0.5226 
     62 CA        -81.6234   24.1481  -74.9581 C.3       2 UNK         0.0269 
     63 CB        -81.4939   22.7527  -74.3207 C.3       2 UNK        -0.1926 
     64 N         -81.7383   25.1300  -73.8807 N.am      2 UNK        -0.4687 
     65 C         -82.2205   26.3751  -73.9988 C.2       1 UNK         0.5165 
     66 O         -82.6630   26.8302  -75.0551 O.2       1 UNK        -0.5079 
     67 H67       -80.0150   25.4925  -69.8680 H         1 UNK         0.0900 
     68 H68       -81.2060   25.8070  -68.6055 H         1 UNK         0.0900 
     69 H69       -81.2339   24.2771  -69.4865 H         1 UNK         0.0900 
     70 H70       -80.4742   26.6388  -71.7343 H         1 UNK         0.2959 
     71 H71       -83.2970   27.2963  -72.4387 H         1 UNK         0.1079 
     72 H72       -82.3308   29.1430  -73.8103 H         1 UNK         0.0837 
     73 H73       -80.7247   28.7179  -73.2768 H         1 UNK         0.0837 
     74 H74       -80.7525   31.4669  -72.6286 H         1 UNK         0.0685 
     75 H75       -80.8710   31.7735  -70.9131 H         1 UNK         0.0685 
     76 H76       -79.7847   28.4469  -70.8847 H         1 UNK         0.1434 
     77 H77       -75.5969   29.2249  -71.1363 H         1 UNK         0.1329 
     78 H78       -78.3904   32.3661  -71.9495 H         1 UNK         0.1335 
     79 H79       -76.0251   32.8891  -71.7043 H         1 UNK         0.0680 
     80 H80       -74.9682   31.6974  -70.9876 H         1 UNK         0.0680 
     81 H81       -72.7465   32.3843  -73.7846 H         1 UNK         0.1032 
     82 H82       -73.0346   32.2228  -72.0905 H         1 UNK         0.1032 
     83 H83       -71.3608   30.5854  -72.8337 H         1 UNK         0.0461 
     84 H84       -72.2639   30.6279  -70.4524 H         1 UNK         0.3453 
     85 H85       -72.9363   29.0992  -69.9565 H         1 UNK         0.3453 
     86 H86       -73.0368   28.9312  -74.4711 H         1 UNK         0.2984 
     87 H87       -72.6696   29.4598  -77.1408 H         1 UNK         0.0554 
     88 H88       -70.7204   28.8227  -78.5719 H         1 UNK         0.0847 
     89 H89       -69.6139   29.2445  -77.2648 H         1 UNK         0.0847 
     90 H90       -70.6027   30.4854  -78.0194 H         1 UNK         0.0847 
     91 H91       -72.7267   27.3464  -76.5636 H         1 UNK         0.3141 
     92 H92       -70.4474   24.9067  -75.5718 H         1 UNK         0.0743 
     93 H93       -72.8099   25.9217  -73.8972 H         1 UNK         0.0784 
     94 H94       -72.1288   24.2964  -73.8400 H         1 UNK         0.0784 
     95 H95       -71.1746   25.6719  -73.3060 H         1 UNK         0.0784 
     96 H96       -73.2675   24.8339  -76.0850 H         1 UNK         0.3213 
     97 H97       -73.0077   24.7185  -79.6725 H         1 UNK         0.0855 
     98 H98       -73.9357   22.7143  -77.5449 H         1 UNK         0.0814 
     99 H99       -72.8050   22.3827  -78.8481 H         1 UNK         0.0814 
    100 H100      -74.4809   22.7573  -79.2203 H         1 UNK         0.0814 
    101 H101      -75.2953   24.8159  -77.9962 H         1 UNK         0.3105 
    102 H102      -75.5755   28.3825  -77.7779 H         1 UNK         0.0547 
    103 H103      -76.6360   27.7505  -79.9246 H         1 UNK         0.0837 
    104 H104      -77.2268   26.2485  -79.2354 H         1 UNK         0.0837 
    105 H105      -77.8359   27.7938  -78.6438 H         1 UNK         0.0837 
    106 H106      -77.0971   26.1743  -76.7137 H         1 UNK         0.3020 
    107 H107      -75.4101   25.9905  -73.5929 H         1 UNK         0.1245 
    108 H108      -78.1535   27.1426  -74.3231 H         1 UNK         0.0781 
    109 H109      -76.9385   27.9507  -73.3864 H         1 UNK         0.0781 
    110 H110      -76.3061   27.0267  -70.6834 H         1 UNK         0.0836 
    111 H111      -77.8256   26.8817  -69.8329 H         1 UNK         0.0836 
    112 H112      -77.7016   24.6900  -74.7755 H         1 UNK         0.3022 
    113 H113      -75.8671   21.9886  -76.2481 H         1 UNK         0.0747 
    114 H114      -77.2620   20.6148  -74.7219 H         1 UNK         0.0793 
    115 H115      -75.9503   21.3636  -73.8274 H         1 UNK         0.0793 
    116 H116      -77.5769   22.0185  -73.6999 H         1 UNK         0.0793 
    117 H117      -78.6583   22.3997  -75.9177 H         1 UNK         0.3047 
    118 H118      -79.2616   24.7916  -78.3824 H         1 UNK         0.0822 
    119 H119      -79.7206   21.7960  -78.8579 H         1 UNK         0.0807 
    120 H120      -78.8720   22.8797  -79.9517 H         1 UNK         0.0807 
    121 H121      -80.5832   23.1183  -79.6464 H         1 UNK         0.0807 
    122 H122      -81.1229   23.0665  -77.2021 H         1 UNK         0.2946 
    123 H123      -82.5331   24.1847  -75.5623 H         1 UNK         0.1144 
    124 H124      -82.3392   22.5372  -73.6666 H         1 UNK         0.0793 
    125 H125      -80.5824   22.6622  -73.7279 H         1 UNK         0.0793 
    126 H126      -81.4712   21.9672  -75.0771 H         1 UNK         0.0793 
    127 H127      -81.3738   24.8566  -72.9806 H         1 UNK         0.2896 
@<TRIPOS>BOND
     1    1    2 1    
     2    1   67 1    
     3    1   68 1    
     4    1   69 1    
     5    2    3 2    
     6    2    4 am   BACKBONE|DICT|INTERRES
     7    4    5 1    
     8    4   70 1    
     9    5    6 1    
    10    5   65 1    
    11    5   71 1    
    12    6    7 1    
    13    6   72 1    
    14    6   73 1    
    15    7    8 1    
    16    8    9 1    
    17    8   74 1    
    18    8   75 1    
    19    9   10 ar   
    20    9   14 ar   
    21   10   11 ar   
    22   10   76 1    
    23   11   12 ar   
    24   11   48 1    
    25   12   13 ar   
    26   12   77 1    
    27   13   14 ar   
    28   13   15 1    
    29   14   78 1    
    30   15   16 1    
    31   15   79 1    
    32   15   80 1    
    33   16   17 1    
    34   17   18 1    
    35   17   81 1    
    36   17   82 1    
    37   18   19 1    
    38   18   22 1    
    39   18   83 1    
    40   19   20 am   BACKBONE|DICT|INTERRES
    41   19   21 2    
    42   20   84 1    
    43   20   85 1    
    44   22   23 am   BACKBONE|DICT|INTERRES
    45   22   86 1    
    46   23   24 2    
    47   23   25 1    
    48   25   26 1    
    49   25   27 1    
    50   25   87 1    
    51   26   88 1    
    52   26   89 1    
    53   26   90 1    
    54   27   28 am   BACKBONE|DICT|INTERRES
    55   27   91 1    
    56   28   29 2    
    57   28   30 1    
    58   30   31 1    
    59   30   32 1    
    60   30   92 1    
    61   31   93 1    
    62   31   94 1    
    63   31   95 1    
    64   32   33 am   BACKBONE|DICT|INTERRES
    65   32   96 1    
    66   33   34 2    
    67   33   35 1    
    68   35   36 1    
    69   35   37 1    
    70   35   97 1    
    71   36   98 1    
    72   36   99 1    
    73   36  100 1    
    74   37   38 am   BACKBONE|DICT|INTERRES
    75   37  101 1    
    76   38   39 2    
    77   38   40 1    
    78   40   41 1    
    79   40   42 1    
    80   40  102 1    
    81   41  103 1    
    82   41  104 1    
    83   41  105 1    
    84   42   43 am   BACKBONE|DICT|INTERRES
    85   42  106 1    
    86   43   44 2    
    87   43   45 1    
    88   45   46 1    
    89   45   49 1    
    90   45  107 1    
    91   46   47 1    
    92   46  108 1    
    93   46  109 1    
    94   47   48 1    
    95   48  110 1    
    96   48  111 1    
    97   49   50 am   BACKBONE|DICT|INTERRES
    98   49  112 1    
    99   50   51 2    
   100   50   52 1    
   101   52   53 1    
   102   52   54 1    
   103   52  113 1    
   104   53  114 1    
   105   53  115 1    
   106   53  116 1    
   107   54   55 am   BACKBONE|DICT|INTERRES
   108   54  117 1    
   109   55   56 2    
   110   55   57 1    
   111   57   58 1    
   112   57   59 1    
   113   57  118 1    
   114   58  119 1    
   115   58  120 1    
   116   58  121 1    
   117   59   60 am   BACKBONE|DICT|INTERRES
   118   59  122 1    
   119   60   61 2    
   120   60   62 1    
   121   62   63 1    
   122   62   64 1    
   123   62  123 1    
   124   63  124 1    
   125   63  125 1    
   126   63  126 1    
   127   64   65 am   BACKBONE|DICT|INTERRES
   128   64  127 1    
   129   65   66 2    
@<TRIPOS>SUBSTRUCTURE
     1 UNK         1 GROUP             0       ****    0 ROOT    
