@<TRIPOS>MOLECULE
3R135
127   129    1
SMALL
USER_CHARGES


@<TRIPOS>ATOM
      1 CA        -83.2288   30.0561  -74.9907 C.3       0 UNK        -0.1998 
      2 C         -82.0037   29.7022  -75.8200 C.2       0 UNK         0.4909 
      3 O         -81.8938   30.1372  -76.9666 O.2       0 UNK        -0.5240 
      4 N         -81.0836   28.9126  -75.2499 N.am      1 UNK        -0.4739 
      5 CA        -79.8337   28.4809  -75.8961 C.3       1 UNK         0.0864 
      6 C6        -78.7570   28.0800  -74.8557 C.3       11 UNK        -0.0881 
      7 S7        -78.2843   29.5265  -73.8424 S.3       11 UNK        -0.2682 
      8 C8        -78.8219   29.0637  -72.1709 C.3       11 UNK         0.0289 
      9 C9        -77.6449   28.5967  -71.3300 C.ar      11 UNK        -0.0687 
     10 C10       -77.3035   27.2419  -71.2825 C.ar      11 UNK        -0.0823 
     11 C11       -76.2410   26.8090  -70.4823 C.ar      11 UNK        -0.0830 
     12 C12       -75.5252   27.7399  -69.7257 C.ar      11 UNK        -0.1021 
     13 C13       -75.8524   29.0972  -69.7709 C.ar      11 UNK        -0.0753 
     14 C14       -76.9101   29.5222  -70.5800 C.ar      11 UNK        -0.0933 
     15 C15       -75.0854   30.0843  -68.9049 C.3       11 UNK         0.0166 
     16 S16       -73.4097   30.3915  -69.5436 S.3       11 UNK        -0.2615 
     17 C17       -73.6658   31.8146  -70.6630 C.3       11 UNK        -0.0865 
     18 CA        -73.0464   31.6407  -72.0749 C.3       10 UNK         0.0862 
     19 C         -71.4953   31.4765  -72.0396 C.2       10 UNK         0.5551 
     20 N         -70.9217   30.3873  -72.5384 N.am      10 UNK        -0.7319 
     21 O         -70.7986   32.3680  -71.5600 O.2       10 UNK        -0.5018 
     22 N         -73.7729   30.6377  -72.8673 N.am      10 UNK        -0.4509 
     23 C         -73.7342   30.5679  -74.2032 C.2       10 UNK         0.4899 
     24 O         -73.1212   31.3619  -74.9204 O.2       10 UNK        -0.4839 
     25 CA        -74.5174   29.4167  -74.8557 C.3       9 UNK         0.0222 
     26 CB        -75.5167   29.9940  -75.8744 C.3       9 UNK        -0.1966 
     27 N         -73.6573   28.4477  -75.5438 N.am      9 UNK        -0.4218 
     28 C         -72.5314   27.8803  -75.0821 C.2       9 UNK         0.5020 
     29 O         -72.0911   28.0657  -73.9458 O.2       9 UNK        -0.5274 
     30 CA        -71.7635   26.9408  -76.0367 C.3       8 UNK         0.0270 
     31 CB        -71.1050   25.7676  -75.2862 C.3       8 UNK        -0.1976 
     32 N         -72.6030   26.4105  -77.1167 N.am      8 UNK        -0.4313 
     33 C         -72.7808   26.9933  -78.3115 C.2       8 UNK         0.5041 
     34 O         -72.2232   28.0397  -78.6430 O.2       8 UNK        -0.5577 
     35 CA        -73.7557   26.3267  -79.3034 C.3       7 UNK         0.0284 
     36 CB        -72.9782   25.5324  -80.3655 C.3       7 UNK        -0.1958 
     37 N         -74.7500   25.4472  -78.6810 N.am      7 UNK        -0.4454 
     38 C         -75.7000   25.8394  -77.8205 C.2       7 UNK         0.5089 
     39 O         -75.8508   27.0070  -77.4650 O.2       7 UNK        -0.5125 
     40 CA        -76.5928   24.7421  -77.2045 C.3       6 UNK         0.0408 
     41 CB        -76.5813   23.4074  -77.9815 C.3       6 UNK        -0.1791 
     42 N         -76.2749   24.5011  -75.7932 N.am      6 UNK        -0.4762 
     43 C         -75.0651   24.2445  -75.2654 C.2       6 UNK         0.5007 
     44 O         -74.0256   24.1910  -75.9240 O.2       6 UNK        -0.5032 
     45 CA        -74.9988   23.9843  -73.7483 C.3       5 UNK         0.0783 
     46 C46       -74.6738   25.2880  -72.9832 C.3       11 UNK        -0.0857 
     47 S47       -74.2927   24.9707  -71.2282 S.3       11 UNK        -0.2512 
     48 C48       -75.8772   25.3343  -70.4061 C.3       11 UNK         0.0225 
     49 N         -76.2276   23.3549  -73.2601 N.am      5 UNK        -0.4615 
     50 C         -76.5791   22.0864  -73.4930 C.2       4 UNK         0.5053 
     51 O         -75.8697   21.2720  -74.0837 O.2       4 UNK        -0.5105 
     52 CA        -77.9738   21.6584  -73.0109 C.3       4 UNK         0.0263 
     53 CB        -78.4279   22.3616  -71.7108 C.3       4 UNK        -0.1981 
     54 N         -78.9727   21.8069  -74.0743 N.am      4 UNK        -0.4224 
     55 C         -79.3579   22.9358  -74.6883 C.2       3 UNK         0.4895 
     56 O         -78.9162   24.0604  -74.4269 O.2       3 UNK        -0.5091 
     57 CA        -80.4204   22.7679  -75.7825 C.3       3 UNK         0.0250 
     58 CB        -81.7004   22.0943  -75.2445 C.3       3 UNK        -0.1996 
     59 N         -80.7604   24.0740  -76.3394 N.am      3 UNK        -0.4254 
     60 C         -81.2356   24.2939  -77.5700 C.2       2 UNK         0.5004 
     61 O         -81.3861   23.4052  -78.4096 O.2       2 UNK        -0.5226 
     62 CA        -81.6482   25.7325  -77.9269 C.3       2 UNK         0.0269 
     63 CB        -83.1752   25.8247  -78.0921 C.3       2 UNK        -0.1926 
     64 N         -81.2297   26.7264  -76.9332 N.am      2 UNK        -0.4687 
     65 C         -80.0567   27.3745  -76.9519 C.2       1 UNK         0.5165 
     66 O         -79.1791   27.1481  -77.7837 O.2       1 UNK        -0.5079 
     67 H67       -83.1928   29.6088  -73.9975 H         1 UNK         0.0900 
     68 H68       -84.1328   29.7059  -75.4883 H         1 UNK         0.0900 
     69 H69       -83.3015   31.1369  -74.8726 H         1 UNK         0.0900 
     70 H70       -81.2170   28.6004  -74.2989 H         1 UNK         0.2959 
     71 H71       -79.4404   29.3334  -76.4556 H         1 UNK         0.1079 
     72 H72       -79.1034   27.2586  -74.2262 H         1 UNK         0.0837 
     73 H73       -77.8553   27.7158  -75.3527 H         1 UNK         0.0837 
     74 H74       -79.5982   28.2986  -72.2094 H         1 UNK         0.0685 
     75 H75       -79.2842   29.9343  -71.7032 H         1 UNK         0.0685 
     76 H76       -77.8710   26.5276  -71.8632 H         1 UNK         0.1434 
     77 H77       -74.7089   27.4066  -69.0990 H         1 UNK         0.1329 
     78 H78       -77.1745   30.5703  -70.6138 H         1 UNK         0.1335 
     79 H79       -75.6285   31.0247  -68.7989 H         1 UNK         0.0680 
     80 H80       -74.9996   29.6744  -67.8974 H         1 UNK         0.0680 
     81 H81       -73.2459   32.6991  -70.1805 H         1 UNK         0.1032 
     82 H82       -74.7326   32.0204  -70.7609 H         1 UNK         0.1032 
     83 H83       -73.2070   32.5936  -72.5835 H         1 UNK         0.0461 
     84 H84       -69.9188   30.3021  -72.5092 H         1 UNK         0.3453 
     85 H85       -71.4786   29.6431  -72.9482 H         1 UNK         0.3453 
     86 H86       -74.2589   29.9243  -72.3426 H         1 UNK         0.2984 
     87 H87       -75.0748   28.8804  -74.0849 H         1 UNK         0.0554 
     88 H88       -76.2142   29.2367  -76.2272 H         1 UNK         0.0847 
     89 H89       -75.0107   30.4136  -76.7447 H         1 UNK         0.0847 
     90 H90       -76.1117   30.7943  -75.4326 H         1 UNK         0.0847 
     91 H91       -73.9469   28.2001  -76.4801 H         1 UNK         0.3141 
     92 H92       -70.9588   27.5368  -76.4721 H         1 UNK         0.0743 
     93 H93       -70.3843   26.1273  -74.5507 H         1 UNK         0.0784 
     94 H94       -71.8376   25.1630  -74.7523 H         1 UNK         0.0784 
     95 H95       -70.5649   25.1126  -75.9699 H         1 UNK         0.0784 
     96 H96       -73.1280   25.5659  -76.8972 H         1 UNK         0.3213 
     97 H97       -74.2985   27.1298  -79.8066 H         1 UNK         0.0855 
     98 H98       -72.2500   26.1675  -80.8722 H         1 UNK         0.0814 
     99 H99       -73.6438   25.1336  -81.1313 H         1 UNK         0.0814 
    100 H100      -72.4310   24.6978  -79.9252 H         1 UNK         0.0814 
    101 H101      -74.6713   24.4610  -78.8820 H         1 UNK         0.3105 
    102 H102      -77.6136   25.1228  -77.2276 H         1 UNK         0.0547 
    103 H103      -76.8311   23.5595  -79.0324 H         1 UNK         0.0837 
    104 H104      -75.6140   22.9062  -77.9338 H         1 UNK         0.0837 
    105 H105      -77.3234   22.7191  -77.5767 H         1 UNK         0.0837 
    106 H106      -77.0738   24.5112  -75.1666 H         1 UNK         0.3020 
    107 H107      -74.1753   23.2833  -73.5909 H         1 UNK         0.1245 
    108 H108      -75.4832   26.0134  -73.0763 H         1 UNK         0.0781 
    109 H109      -73.7935   25.7704  -73.4096 H         1 UNK         0.0781 
    110 H110      -75.8000   25.0416  -69.3580 H         1 UNK         0.0836 
    111 H111      -76.6660   24.7148  -70.8310 H         1 UNK         0.0836 
    112 H112      -76.9043   23.9591  -72.8198 H         1 UNK         0.3022 
    113 H113      -77.9080   20.5909  -72.7939 H         1 UNK         0.0747 
    114 H114      -79.3440   21.9118  -71.3280 H         1 UNK         0.0793 
    115 H115      -77.6735   22.2629  -70.9290 H         1 UNK         0.0793 
    116 H116      -78.6233   23.4249  -71.8494 H         1 UNK         0.0793 
    117 H117      -79.3779   20.9387  -74.3960 H         1 UNK         0.3047 
    118 H118      -79.9830   22.1467  -76.5672 H         1 UNK         0.0822 
    119 H119      -82.4573   22.0007  -76.0236 H         1 UNK         0.0807 
    120 H120      -82.1381   22.6645  -74.4240 H         1 UNK         0.0807 
    121 H121      -81.5036   21.0874  -74.8759 H         1 UNK         0.0807 
    122 H122      -80.5848   24.8584  -75.7255 H         1 UNK         0.2946 
    123 H123      -81.1884   25.9671  -78.8901 H         1 UNK         0.1144 
    124 H124      -83.4809   26.8251  -78.3994 H         1 UNK         0.0793 
    125 H125      -83.6976   25.5826  -77.1657 H         1 UNK         0.0793 
    126 H126      -83.5295   25.1315  -78.8564 H         1 UNK         0.0793 
    127 H127      -81.9034   26.9799  -76.2248 H         1 UNK         0.2896 
@<TRIPOS>BOND
     1    1    2 1    
     2    1   67 1    
     3    1   68 1    
     4    1   69 1    
     5    2    3 2    
     6    2    4 am   BACKBONE|DICT|INTERRES
     7    4    5 1    
     8    4   70 1    
     9    5    6 1    
    10    5   65 1    
    11    5   71 1    
    12    6    7 1    
    13    6   72 1    
    14    6   73 1    
    15    7    8 1    
    16    8    9 1    
    17    8   74 1    
    18    8   75 1    
    19    9   10 ar   
    20    9   14 ar   
    21   10   11 ar   
    22   10   76 1    
    23   11   12 ar   
    24   11   48 1    
    25   12   13 ar   
    26   12   77 1    
    27   13   14 ar   
    28   13   15 1    
    29   14   78 1    
    30   15   16 1    
    31   15   79 1    
    32   15   80 1    
    33   16   17 1    
    34   17   18 1    
    35   17   81 1    
    36   17   82 1    
    37   18   19 1    
    38   18   22 1    
    39   18   83 1    
    40   19   20 am   BACKBONE|DICT|INTERRES
    41   19   21 2    
    42   20   84 1    
    43   20   85 1    
    44   22   23 am   BACKBONE|DICT|INTERRES
    45   22   86 1    
    46   23   24 2    
    47   23   25 1    
    48   25   26 1    
    49   25   27 1    
    50   25   87 1    
    51   26   88 1    
    52   26   89 1    
    53   26   90 1    
    54   27   28 am   BACKBONE|DICT|INTERRES
    55   27   91 1    
    56   28   29 2    
    57   28   30 1    
    58   30   31 1    
    59   30   32 1    
    60   30   92 1    
    61   31   93 1    
    62   31   94 1    
    63   31   95 1    
    64   32   33 am   BACKBONE|DICT|INTERRES
    65   32   96 1    
    66   33   34 2    
    67   33   35 1    
    68   35   36 1    
    69   35   37 1    
    70   35   97 1    
    71   36   98 1    
    72   36   99 1    
    73   36  100 1    
    74   37   38 am   BACKBONE|DICT|INTERRES
    75   37  101 1    
    76   38   39 2    
    77   38   40 1    
    78   40   41 1    
    79   40   42 1    
    80   40  102 1    
    81   41  103 1    
    82   41  104 1    
    83   41  105 1    
    84   42   43 am   BACKBONE|DICT|INTERRES
    85   42  106 1    
    86   43   44 2    
    87   43   45 1    
    88   45   46 1    
    89   45   49 1    
    90   45  107 1    
    91   46   47 1    
    92   46  108 1    
    93   46  109 1    
    94   47   48 1    
    95   48  110 1    
    96   48  111 1    
    97   49   50 am   BACKBONE|DICT|INTERRES
    98   49  112 1    
    99   50   51 2    
   100   50   52 1    
   101   52   53 1    
   102   52   54 1    
   103   52  113 1    
   104   53  114 1    
   105   53  115 1    
   106   53  116 1    
   107   54   55 am   BACKBONE|DICT|INTERRES
   108   54  117 1    
   109   55   56 2    
   110   55   57 1    
   111   57   58 1    
   112   57   59 1    
   113   57  118 1    
   114   58  119 1    
   115   58  120 1    
   116   58  121 1    
   117   59   60 am   BACKBONE|DICT|INTERRES
   118   59  122 1    
   119   60   61 2    
   120   60   62 1    
   121   62   63 1    
   122   62   64 1    
   123   62  123 1    
   124   63  124 1    
   125   63  125 1    
   126   63  126 1    
   127   64   65 am   BACKBONE|DICT|INTERRES
   128   64  127 1    
   129   65   66 2    
@<TRIPOS>SUBSTRUCTURE
     1 UNK         1 GROUP             0       ****    0 ROOT    
