@<TRIPOS>MOLECULE
3R135
127   129    1
SMALL
USER_CHARGES


@<TRIPOS>ATOM
      1 CA        -80.4256   28.2662  -70.6797 C.3       0 UNK        -0.1998 
      2 C         -81.1283   28.2089  -72.0269 C.2       0 UNK         0.4909 
      3 O         -82.3386   27.9894  -72.0825 O.2       0 UNK        -0.5240 
      4 N         -80.3730   28.4120  -73.1134 N.am      1 UNK        -0.4739 
      5 CA        -80.8608   28.4231  -74.5002 C.3       1 UNK         0.0864 
      6 C6        -79.8242   29.0286  -75.4802 C.3       11 UNK        -0.0881 
      7 S7        -79.3249   30.7277  -75.0304 S.3       11 UNK        -0.2682 
      8 C8        -77.5398   30.5461  -74.7188 C.3       11 UNK         0.0289 
      9 C9        -77.2467   30.0113  -73.3236 C.ar      11 UNK        -0.0687 
     10 C10       -77.2148   28.6352  -73.0849 C.ar      11 UNK        -0.0823 
     11 C11       -76.9108   28.1271  -71.8134 C.ar      11 UNK        -0.0830 
     12 C12       -76.6135   29.0282  -70.7877 C.ar      11 UNK        -0.1021 
     13 C13       -76.6363   30.4075  -71.0111 C.ar      11 UNK        -0.0753 
     14 C14       -76.9716   30.8942  -72.2770 C.ar      11 UNK        -0.0933 
     15 C15       -76.2740   31.3662  -69.8853 C.3       11 UNK         0.0166 
     16 S16       -74.7506   32.3083  -70.2303 S.3       11 UNK        -0.2615 
     17 C17       -73.5584   30.9985  -70.6891 C.3       11 UNK        -0.0865 
     18 CA        -73.2559   30.9870  -72.2202 C.3       10 UNK         0.0862 
     19 C         -72.1112   31.9684  -72.6301 C.2       10 UNK         0.5551 
     20 N         -71.2737   31.6477  -73.6095 N.am      10 UNK        -0.7319 
     21 O         -71.9886   33.0560  -72.0723 O.2       10 UNK        -0.5018 
     22 N         -73.1254   29.6271  -72.7723 N.am      10 UNK        -0.4509 
     23 C         -72.2028   28.7211  -72.4218 C.2       10 UNK         0.4899 
     24 O         -71.4204   28.8646  -71.4819 O.2       10 UNK        -0.4839 
     25 CA        -72.1090   27.4427  -73.2802 C.3       9 UNK         0.0222 
     26 CB        -72.8692   26.2895  -72.6100 C.3       9 UNK        -0.1966 
     27 N         -72.5587   27.5813  -74.6749 N.am      9 UNK        -0.4218 
     28 C         -72.0331   28.4372  -75.5669 C.2       9 UNK         0.5020 
     29 O         -71.1694   29.2676  -75.2821 O.2       9 UNK        -0.5274 
     30 CA        -72.5302   28.3745  -77.0172 C.3       8 UNK         0.0270 
     31 CB        -71.6007   27.4773  -77.8521 C.3       8 UNK        -0.1976 
     32 N         -73.9016   27.8748  -77.1420 N.am      8 UNK        -0.4313 
     33 C         -74.8982   28.5219  -77.7664 C.2       8 UNK         0.5041 
     34 O         -74.8119   29.6893  -78.1513 O.2       8 UNK        -0.5577 
     35 CA        -76.2108   27.7414  -78.0220 C.3       7 UNK         0.0284 
     36 CB        -76.9142   28.1794  -79.3232 C.3       7 UNK        -0.1958 
     37 N         -76.0502   26.2814  -77.9897 N.am      7 UNK        -0.4454 
     38 C         -75.2197   25.5204  -78.7234 C.2       7 UNK         0.5089 
     39 O         -74.5914   25.9322  -79.6989 O.2       7 UNK        -0.5125 
     40 CA        -75.0106   24.0676  -78.2376 C.3       6 UNK         0.0408 
     41 CB        -73.5566   23.5934  -78.4391 C.3       6 UNK        -0.1791 
     42 N         -75.4339   23.8444  -76.8456 N.am      6 UNK        -0.4762 
     43 C         -74.9915   24.4697  -75.7383 C.2       6 UNK         0.5007 
     44 O         -74.0807   25.3029  -75.7432 O.2       6 UNK        -0.5032 
     45 CA        -75.7923   24.2540  -74.4362 C.3       5 UNK         0.0783 
     46 C46       -76.5195   25.5806  -74.1027 C.3       11 UNK        -0.0857 
     47 S47       -77.6635   25.5080  -72.6826 S.3       11 UNK        -0.2512 
     48 C48       -76.8679   26.6304  -71.4828 C.3       11 UNK         0.0225 
     49 N         -76.7271   23.1310  -74.5486 N.am      5 UNK        -0.4615 
     50 C         -76.3867   21.8415  -74.4174 C.2       4 UNK         0.5053 
     51 O         -75.2527   21.4659  -74.1206 O.2       4 UNK        -0.5105 
     52 CA        -77.4809   20.7872  -74.6762 C.3       4 UNK         0.0263 
     53 CB        -78.0570   20.2809  -73.3440 C.3       4 UNK        -0.1981 
     54 N         -78.5809   21.2643  -75.5200 N.am      4 UNK        -0.4224 
     55 C         -78.4721   21.6514  -76.8001 C.2       3 UNK         0.4895 
     56 O         -77.4253   21.5996  -77.4451 O.2       3 UNK        -0.5091 
     57 CA        -79.7292   22.2644  -77.4455 C.3       3 UNK         0.0250 
     58 CB        -80.5563   21.1801  -78.1539 C.3       3 UNK        -0.1996 
     59 N         -80.5780   22.9843  -76.4865 N.am      3 UNK        -0.4254 
     60 C         -80.1857   24.0619  -75.7922 C.2       2 UNK         0.5004 
     61 O         -79.0763   24.5858  -75.9199 O.2       2 UNK        -0.5226 
     62 CA        -81.1610   24.5743  -74.7227 C.3       2 UNK         0.0269 
     63 CB        -81.0704   23.7005  -73.4596 C.3       2 UNK        -0.1926 
     64 N         -80.8594   25.9571  -74.3542 N.am      2 UNK        -0.4687 
     65 C         -81.3195   27.0352  -75.0026 C.2       1 UNK         0.5165 
     66 O         -82.0848   26.9695  -75.9663 O.2       1 UNK        -0.5079 
     67 H67       -81.1007   28.6456  -69.9130 H         1 UNK         0.0900 
     68 H68       -79.5568   28.9231  -70.7128 H         1 UNK         0.0900 
     69 H69       -80.0956   27.2706  -70.3843 H         1 UNK         0.0900 
     70 H70       -79.3926   28.6285  -72.9949 H         1 UNK         0.2959 
     71 H71       -81.7477   29.0606  -74.5209 H         1 UNK         0.1079 
     72 H72       -78.9479   28.3851  -75.5633 H         1 UNK         0.0837 
     73 H73       -80.2457   29.0779  -76.4864 H         1 UNK         0.0837 
     74 H74       -77.0894   29.9046  -75.4775 H         1 UNK         0.0685 
     75 H75       -77.0697   31.5230  -74.8421 H         1 UNK         0.0685 
     76 H76       -77.4369   27.9747  -73.9050 H         1 UNK         0.1434 
     77 H77       -76.3568   28.6518  -69.8066 H         1 UNK         0.1329 
     78 H78       -76.9856   31.9613  -72.4525 H         1 UNK         0.1335 
     79 H79       -77.0965   32.0660  -69.7314 H         1 UNK         0.0680 
     80 H80       -76.1477   30.8296  -68.9437 H         1 UNK         0.0680 
     81 H81       -73.9580   30.0362  -70.3684 H         1 UNK         0.1032 
     82 H82       -72.6426   31.1285  -70.1095 H         1 UNK         0.1032 
     83 H83       -74.1344   31.3768  -72.7348 H         1 UNK         0.0461 
     84 H84       -70.5487   32.2990  -73.8641 H         1 UNK         0.3453 
     85 H85       -71.3406   30.7586  -74.0966 H         1 UNK         0.3453 
     86 H86       -73.7198   29.4177  -73.5601 H         1 UNK         0.2984 
     87 H87       -71.0533   27.1664  -73.3178 H         1 UNK         0.0554 
     88 H88       -72.7337   25.3528  -73.1509 H         1 UNK         0.0847 
     89 H89       -73.9345   26.4999  -72.5553 H         1 UNK         0.0847 
     90 H90       -72.5165   26.1279  -71.5904 H         1 UNK         0.0847 
     91 H91       -73.2111   26.8783  -75.0062 H         1 UNK         0.3141 
     92 H92       -72.4597   29.3895  -77.4137 H         1 UNK         0.0743 
     93 H93       -71.6091   26.4461  -77.4965 H         1 UNK         0.0784 
     94 H94       -71.8970   27.4702  -78.9015 H         1 UNK         0.0784 
     95 H95       -70.5697   27.8313  -77.8082 H         1 UNK         0.0784 
     96 H96       -74.0609   26.9190  -76.8380 H         1 UNK         0.3213 
     97 H97       -76.8721   27.9913  -77.1914 H         1 UNK         0.0855 
     98 H98       -77.1681   29.2398  -79.2950 H         1 UNK         0.0814 
     99 H99       -77.8434   27.6307  -79.4761 H         1 UNK         0.0814 
    100 H100      -76.2818   28.0199  -80.1970 H         1 UNK         0.0814 
    101 H101      -76.5486   25.8072  -77.2498 H         1 UNK         0.3105 
    102 H102      -75.6556   23.4430  -78.8571 H         1 UNK         0.0547 
    103 H103      -73.2751   23.6254  -79.4923 H         1 UNK         0.0837 
    104 H104      -72.8468   24.2169  -77.8952 H         1 UNK         0.0837 
    105 H105      -73.4258   22.5650  -78.1029 H         1 UNK         0.0837 
    106 H106      -76.1929   23.1791  -76.7411 H         1 UNK         0.3020 
    107 H107      -75.0753   24.0393  -73.6405 H         1 UNK         0.1245 
    108 H108      -77.1072   25.9188  -74.9573 H         1 UNK         0.0781 
    109 H109      -75.7830   26.3648  -73.9258 H         1 UNK         0.0781 
    110 H110      -75.8351   26.3200  -71.3297 H         1 UNK         0.0836 
    111 H111      -77.3689   26.4754  -70.5260 H         1 UNK         0.0836 
    112 H112      -77.6758   23.3781  -74.8033 H         1 UNK         0.3022 
    113 H113      -77.0082   19.9475  -75.1900 H         1 UNK         0.0747 
    114 H114      -78.7736   19.4744  -73.5008 H         1 UNK         0.0793 
    115 H115      -77.2676   19.8887  -72.7011 H         1 UNK         0.0793 
    116 H116      -78.5598   21.0770  -72.7929 H         1 UNK         0.0793 
    117 H117      -79.4853   21.3412  -75.0791 H         1 UNK         0.3047 
    118 H118      -79.3921   22.9838  -78.1952 H         1 UNK         0.0822 
    119 H119      -81.4025   21.6120  -78.6886 H         1 UNK         0.0807 
    120 H120      -80.9436   20.4410  -77.4513 H         1 UNK         0.0807 
    121 H121      -79.9511   20.6459  -78.8879 H         1 UNK         0.0807 
    122 H122      -81.5014   22.6065  -76.3266 H         1 UNK         0.2946 
    123 H123      -82.1778   24.5194  -75.1191 H         1 UNK         0.1144 
    124 H124      -81.3619   22.6706  -73.6690 H         1 UNK         0.0793 
    125 H125      -81.7347   24.0678  -72.6769 H         1 UNK         0.0793 
    126 H126      -80.0586   23.6764  -73.0532 H         1 UNK         0.0793 
    127 H127      -80.1905   26.0934  -73.6096 H         1 UNK         0.2896 
@<TRIPOS>BOND
     1    1    2 1    
     2    1   67 1    
     3    1   68 1    
     4    1   69 1    
     5    2    3 2    
     6    2    4 am   BACKBONE|DICT|INTERRES
     7    4    5 1    
     8    4   70 1    
     9    5    6 1    
    10    5   65 1    
    11    5   71 1    
    12    6    7 1    
    13    6   72 1    
    14    6   73 1    
    15    7    8 1    
    16    8    9 1    
    17    8   74 1    
    18    8   75 1    
    19    9   10 ar   
    20    9   14 ar   
    21   10   11 ar   
    22   10   76 1    
    23   11   12 ar   
    24   11   48 1    
    25   12   13 ar   
    26   12   77 1    
    27   13   14 ar   
    28   13   15 1    
    29   14   78 1    
    30   15   16 1    
    31   15   79 1    
    32   15   80 1    
    33   16   17 1    
    34   17   18 1    
    35   17   81 1    
    36   17   82 1    
    37   18   19 1    
    38   18   22 1    
    39   18   83 1    
    40   19   20 am   BACKBONE|DICT|INTERRES
    41   19   21 2    
    42   20   84 1    
    43   20   85 1    
    44   22   23 am   BACKBONE|DICT|INTERRES
    45   22   86 1    
    46   23   24 2    
    47   23   25 1    
    48   25   26 1    
    49   25   27 1    
    50   25   87 1    
    51   26   88 1    
    52   26   89 1    
    53   26   90 1    
    54   27   28 am   BACKBONE|DICT|INTERRES
    55   27   91 1    
    56   28   29 2    
    57   28   30 1    
    58   30   31 1    
    59   30   32 1    
    60   30   92 1    
    61   31   93 1    
    62   31   94 1    
    63   31   95 1    
    64   32   33 am   BACKBONE|DICT|INTERRES
    65   32   96 1    
    66   33   34 2    
    67   33   35 1    
    68   35   36 1    
    69   35   37 1    
    70   35   97 1    
    71   36   98 1    
    72   36   99 1    
    73   36  100 1    
    74   37   38 am   BACKBONE|DICT|INTERRES
    75   37  101 1    
    76   38   39 2    
    77   38   40 1    
    78   40   41 1    
    79   40   42 1    
    80   40  102 1    
    81   41  103 1    
    82   41  104 1    
    83   41  105 1    
    84   42   43 am   BACKBONE|DICT|INTERRES
    85   42  106 1    
    86   43   44 2    
    87   43   45 1    
    88   45   46 1    
    89   45   49 1    
    90   45  107 1    
    91   46   47 1    
    92   46  108 1    
    93   46  109 1    
    94   47   48 1    
    95   48  110 1    
    96   48  111 1    
    97   49   50 am   BACKBONE|DICT|INTERRES
    98   49  112 1    
    99   50   51 2    
   100   50   52 1    
   101   52   53 1    
   102   52   54 1    
   103   52  113 1    
   104   53  114 1    
   105   53  115 1    
   106   53  116 1    
   107   54   55 am   BACKBONE|DICT|INTERRES
   108   54  117 1    
   109   55   56 2    
   110   55   57 1    
   111   57   58 1    
   112   57   59 1    
   113   57  118 1    
   114   58  119 1    
   115   58  120 1    
   116   58  121 1    
   117   59   60 am   BACKBONE|DICT|INTERRES
   118   59  122 1    
   119   60   61 2    
   120   60   62 1    
   121   62   63 1    
   122   62   64 1    
   123   62  123 1    
   124   63  124 1    
   125   63  125 1    
   126   63  126 1    
   127   64   65 am   BACKBONE|DICT|INTERRES
   128   64  127 1    
   129   65   66 2    
@<TRIPOS>SUBSTRUCTURE
     1 UNK         1 GROUP             0       ****    0 ROOT    
