@<TRIPOS>MOLECULE
3R135
127   129    1
SMALL
USER_CHARGES


@<TRIPOS>ATOM
      1 CA        -77.4228   21.4850  -71.4554 C.3       0 UNK        -0.1998 
      2 C         -78.7137   22.0219  -70.8557 C.2       0 UNK         0.4909 
      3 O         -79.4526   21.2732  -70.2161 O.2       0 UNK        -0.5240 
      4 N         -78.9926   23.3155  -71.0606 N.am      1 UNK        -0.4739 
      5 CA        -80.1895   24.0125  -70.5684 C.3       1 UNK         0.0864 
      6 C6        -79.9643   25.5452  -70.5197 C.3       11 UNK        -0.0881 
      7 S7        -79.4884   26.2911  -72.1219 S.3       11 UNK        -0.2682 
      8 C8        -80.1398   27.9763  -71.9024 C.3       11 UNK         0.0289 
      9 C9        -79.3367   28.9790  -72.7135 C.ar      11 UNK        -0.0687 
     10 C10       -79.7544   29.3653  -73.9894 C.ar      11 UNK        -0.0823 
     11 C11       -78.9929   30.2640  -74.7446 C.ar      11 UNK        -0.0830 
     12 C12       -77.8242   30.8052  -74.1985 C.ar      11 UNK        -0.1021 
     13 C13       -77.3966   30.4216  -72.9241 C.ar      11 UNK        -0.0753 
     14 C14       -78.1593   29.5136  -72.1852 C.ar      11 UNK        -0.0933 
     15 C15       -76.0917   30.9501  -72.3533 C.3       11 UNK         0.0166 
     16 S16       -74.7825   29.7071  -72.5501 S.3       11 UNK        -0.2615 
     17 C17       -73.3667   30.5112  -71.7240 C.3       11 UNK        -0.0865 
     18 CA        -72.2947   31.0265  -72.7199 C.3       10 UNK         0.0862 
     19 C         -71.0946   31.6368  -71.9441 C.2       10 UNK         0.5551 
     20 N         -71.0787   32.9496  -71.7583 N.am      10 UNK        -0.7319 
     21 O         -70.2114   30.9260  -71.4682 O.2       10 UNK        -0.5018 
     22 N         -71.9128   29.9724  -73.6706 N.am      10 UNK        -0.4509 
     23 C         -71.0247   30.0616  -74.6671 C.2       10 UNK         0.4899 
     24 O         -70.3711   31.0755  -74.9153 O.2       10 UNK        -0.4839 
     25 CA        -70.8801   28.8395  -75.5951 C.3       9 UNK         0.0222 
     26 CB        -69.4122   28.3897  -75.7452 C.3       9 UNK        -0.1966 
     27 N         -71.7698   27.7139  -75.2725 N.am      9 UNK        -0.4218 
     28 C         -71.6856   26.8226  -74.2722 C.2       9 UNK         0.5020 
     29 O         -70.8146   26.8364  -73.4030 O.2       9 UNK        -0.5274 
     30 CA        -72.7647   25.7250  -74.2336 C.3       8 UNK         0.0270 
     31 CB        -73.9485   26.1455  -73.3471 C.3       8 UNK        -0.1976 
     32 N         -73.2540   25.3973  -75.5753 N.am      8 UNK        -0.4313 
     33 C         -72.6829   24.5008  -76.3924 C.2       8 UNK         0.5041 
     34 O         -71.7528   23.7654  -76.0593 O.2       8 UNK        -0.5577 
     35 CA        -73.2261   24.4140  -77.8307 C.3       7 UNK         0.0284 
     36 CB        -74.3040   23.3236  -77.9402 C.3       7 UNK        -0.1958 
     37 N         -73.7568   25.6942  -78.3121 N.am      7 UNK        -0.4454 
     38 C         -72.9828   26.7348  -78.6601 C.2       7 UNK         0.5089 
     39 O         -71.7533   26.6859  -78.6893 O.2       7 UNK        -0.5125 
     40 CA        -73.6751   28.0681  -79.0072 C.3       6 UNK         0.0408 
     41 CB        -73.7861   28.2305  -80.5312 C.3       6 UNK        -0.1791 
     42 N         -75.0006   28.2489  -78.4067 N.am      6 UNK        -0.4762 
     43 C         -75.2684   28.2510  -77.0928 C.2       6 UNK         0.5007 
     44 O         -74.4051   28.0860  -76.2307 O.2       6 UNK        -0.5032 
     45 CA        -76.7430   28.3937  -76.6592 C.3       5 UNK         0.0783 
     46 C46       -77.6616   29.0310  -77.7426 C.3       11 UNK        -0.0857 
     47 S47       -79.4183   29.1782  -77.2595 S.3       11 UNK        -0.2512 
     48 C48       -79.4293   30.6300  -76.1565 C.3       11 UNK         0.0225 
     49 N         -77.2707   27.1353  -76.1197 N.am      5 UNK        -0.4615 
     50 C         -77.2290   25.9224  -76.6877 C.2       4 UNK         0.5053 
     51 O         -76.6605   25.6678  -77.7502 O.2       4 UNK        -0.5105 
     52 CA        -77.9589   24.8005  -75.9336 C.3       4 UNK         0.0263 
     53 CB        -77.1145   24.2952  -74.7514 C.3       4 UNK        -0.1981 
     54 N         -79.2778   25.2137  -75.4478 N.am      4 UNK        -0.4224 
     55 C         -80.3236   25.5180  -76.2314 C.2       3 UNK         0.4895 
     56 O         -80.3000   25.4720  -77.4626 O.2       3 UNK        -0.5091 
     57 CA        -81.6209   25.8955  -75.4901 C.3       3 UNK         0.0250 
     58 CB        -82.7997   26.2048  -76.4372 C.3       3 UNK        -0.1996 
     59 N         -81.9903   24.8821  -74.4928 N.am      3 UNK        -0.4254 
     60 C         -82.2537   23.5823  -74.7089 C.2       2 UNK         0.5004 
     61 O         -82.3210   23.0652  -75.8251 O.2       2 UNK        -0.5226 
     62 CA        -82.4184   22.7127  -73.4503 C.3       2 UNK         0.0269 
     63 CB        -82.3960   21.2035  -73.7601 C.3       2 UNK        -0.1926 
     64 N         -81.3401   23.0179  -72.5086 N.am      2 UNK        -0.4687 
     65 C         -81.4802   23.6596  -71.3420 C.2       1 UNK         0.5165 
     66 O         -82.5705   24.0065  -70.8861 O.2       1 UNK        -0.5079 
     67 H67       -76.7997   21.0493  -70.6748 H         1 UNK         0.0900 
     68 H68       -76.8463   22.2661  -71.9507 H         1 UNK         0.0900 
     69 H69       -77.6435   20.7090  -72.1879 H         1 UNK         0.0900 
     70 H70       -78.3464   23.8930  -71.5800 H         1 UNK         0.2959 
     71 H71       -80.3628   23.6790  -69.5425 H         1 UNK         0.1079 
     72 H72       -80.8556   26.0443  -70.1334 H         1 UNK         0.0837 
     73 H73       -79.1735   25.7714  -69.8026 H         1 UNK         0.0837 
     74 H74       -81.1924   27.9991  -72.1888 H         1 UNK         0.0685 
     75 H75       -80.1001   28.2564  -70.8484 H         1 UNK         0.0685 
     76 H76       -80.6622   28.9543  -74.4073 H         1 UNK         0.1434 
     77 H77       -77.2283   31.4985  -74.7767 H         1 UNK         0.1329 
     78 H78       -77.8222   29.2045  -71.2050 H         1 UNK         0.1335 
     79 H79       -75.7956   31.8747  -72.8515 H         1 UNK         0.0680 
     80 H80       -76.2199   31.1871  -71.2959 H         1 UNK         0.0680 
     81 H81       -72.9278   29.7807  -71.0411 H         1 UNK         0.1032 
     82 H82       -73.7269   31.3277  -71.0952 H         1 UNK         0.1032 
     83 H83       -72.7484   31.8200  -73.3171 H         1 UNK         0.0461 
     84 H84       -70.3175   33.3622  -71.2417 H         1 UNK         0.3453 
     85 H85       -71.8041   33.5393  -72.1358 H         1 UNK         0.3453 
     86 H86       -72.4063   29.0996  -73.5611 H         1 UNK         0.2984 
     87 H87       -71.2100   29.1810  -76.5773 H         1 UNK         0.0554 
     88 H88       -69.3250   27.5444  -76.4279 H         1 UNK         0.0847 
     89 H89       -68.9740   28.1001  -74.7899 H         1 UNK         0.0847 
     90 H90       -68.7975   29.1953  -76.1485 H         1 UNK         0.0847 
     91 H91       -72.6154   27.6793  -75.8362 H         1 UNK         0.3141 
     92 H92       -72.3118   24.8378  -73.7855 H         1 UNK         0.0743 
     93 H93       -74.5144   26.9685  -73.7839 H         1 UNK         0.0784 
     94 H94       -74.6355   25.3144  -73.1905 H         1 UNK         0.0784 
     95 H95       -73.6074   26.4698  -72.3629 H         1 UNK         0.0784 
     96 H96       -73.9810   25.9955  -75.9473 H         1 UNK         0.3213 
     97 H97       -72.3945   24.1260  -78.4780 H         1 UNK         0.0855 
     98 H98       -75.1503   23.5185  -77.2825 H         1 UNK         0.0814 
     99 H99       -73.8985   22.3493  -77.6643 H         1 UNK         0.0814 
    100 H100      -74.6832   23.2400  -78.9588 H         1 UNK         0.0814 
    101 H101      -74.7679   25.8068  -78.3037 H         1 UNK         0.3105 
    102 H102      -73.0369   28.8683  -78.6267 H         1 UNK         0.0547 
    103 H103      -72.8090   28.1322  -81.0067 H         1 UNK         0.0837 
    104 H104      -74.4390   27.4756  -80.9712 H         1 UNK         0.0837 
    105 H105      -74.1759   29.2123  -80.8002 H         1 UNK         0.0837 
    106 H106      -75.7732   28.3366  -79.0509 H         1 UNK         0.3020 
    107 H107      -76.7019   29.0775  -75.8149 H         1 UNK         0.1245 
    108 H108      -77.2948   30.0196  -78.0252 H         1 UNK         0.0781 
    109 H109      -77.6527   28.4269  -78.6513 H         1 UNK         0.0781 
    110 H110      -78.8033   31.4185  -76.5769 H         1 UNK         0.0836 
    111 H111      -80.4425   31.0325  -76.1173 H         1 UNK         0.0836 
    112 H112      -77.7559   27.2236  -75.2389 H         1 UNK         0.3022 
    113 H113      -78.1014   23.9725  -76.6314 H         1 UNK         0.0747 
    114 H114      -77.5709   23.4214  -74.2865 H         1 UNK         0.0793 
    115 H115      -76.1158   24.0013  -75.0767 H         1 UNK         0.0793 
    116 H116      -76.9945   25.0600  -73.9830 H         1 UNK         0.0793 
    117 H117      -79.3913   25.2895  -74.4464 H         1 UNK         0.3047 
    118 H118      -81.4014   26.8077  -74.9354 H         1 UNK         0.0822 
    119 H119      -83.6887   26.5007  -75.8806 H         1 UNK         0.0807 
    120 H120      -83.0614   25.3465  -77.0567 H         1 UNK         0.0807 
    121 H121      -82.5500   27.0261  -77.1103 H         1 UNK         0.0807 
    122 H122      -81.9559   25.1884  -73.5304 H         1 UNK         0.2946 
    123 H123      -83.3928   22.9563  -73.0204 H         1 UNK         0.1144 
    124 H124      -83.2119   20.9283  -74.4298 H         1 UNK         0.0793 
    125 H125      -82.5117   20.6124  -72.8514 H         1 UNK         0.0793 
    126 H126      -81.4631   20.9025  -74.2384 H         1 UNK         0.0793 
    127 H127      -80.4032   22.7874  -72.8073 H         1 UNK         0.2896 
@<TRIPOS>BOND
     1    1    2 1    
     2    1   67 1    
     3    1   68 1    
     4    1   69 1    
     5    2    3 2    
     6    2    4 am   BACKBONE|DICT|INTERRES
     7    4    5 1    
     8    4   70 1    
     9    5    6 1    
    10    5   65 1    
    11    5   71 1    
    12    6    7 1    
    13    6   72 1    
    14    6   73 1    
    15    7    8 1    
    16    8    9 1    
    17    8   74 1    
    18    8   75 1    
    19    9   10 ar   
    20    9   14 ar   
    21   10   11 ar   
    22   10   76 1    
    23   11   12 ar   
    24   11   48 1    
    25   12   13 ar   
    26   12   77 1    
    27   13   14 ar   
    28   13   15 1    
    29   14   78 1    
    30   15   16 1    
    31   15   79 1    
    32   15   80 1    
    33   16   17 1    
    34   17   18 1    
    35   17   81 1    
    36   17   82 1    
    37   18   19 1    
    38   18   22 1    
    39   18   83 1    
    40   19   20 am   BACKBONE|DICT|INTERRES
    41   19   21 2    
    42   20   84 1    
    43   20   85 1    
    44   22   23 am   BACKBONE|DICT|INTERRES
    45   22   86 1    
    46   23   24 2    
    47   23   25 1    
    48   25   26 1    
    49   25   27 1    
    50   25   87 1    
    51   26   88 1    
    52   26   89 1    
    53   26   90 1    
    54   27   28 am   BACKBONE|DICT|INTERRES
    55   27   91 1    
    56   28   29 2    
    57   28   30 1    
    58   30   31 1    
    59   30   32 1    
    60   30   92 1    
    61   31   93 1    
    62   31   94 1    
    63   31   95 1    
    64   32   33 am   BACKBONE|DICT|INTERRES
    65   32   96 1    
    66   33   34 2    
    67   33   35 1    
    68   35   36 1    
    69   35   37 1    
    70   35   97 1    
    71   36   98 1    
    72   36   99 1    
    73   36  100 1    
    74   37   38 am   BACKBONE|DICT|INTERRES
    75   37  101 1    
    76   38   39 2    
    77   38   40 1    
    78   40   41 1    
    79   40   42 1    
    80   40  102 1    
    81   41  103 1    
    82   41  104 1    
    83   41  105 1    
    84   42   43 am   BACKBONE|DICT|INTERRES
    85   42  106 1    
    86   43   44 2    
    87   43   45 1    
    88   45   46 1    
    89   45   49 1    
    90   45  107 1    
    91   46   47 1    
    92   46  108 1    
    93   46  109 1    
    94   47   48 1    
    95   48  110 1    
    96   48  111 1    
    97   49   50 am   BACKBONE|DICT|INTERRES
    98   49  112 1    
    99   50   51 2    
   100   50   52 1    
   101   52   53 1    
   102   52   54 1    
   103   52  113 1    
   104   53  114 1    
   105   53  115 1    
   106   53  116 1    
   107   54   55 am   BACKBONE|DICT|INTERRES
   108   54  117 1    
   109   55   56 2    
   110   55   57 1    
   111   57   58 1    
   112   57   59 1    
   113   57  118 1    
   114   58  119 1    
   115   58  120 1    
   116   58  121 1    
   117   59   60 am   BACKBONE|DICT|INTERRES
   118   59  122 1    
   119   60   61 2    
   120   60   62 1    
   121   62   63 1    
   122   62   64 1    
   123   62  123 1    
   124   63  124 1    
   125   63  125 1    
   126   63  126 1    
   127   64   65 am   BACKBONE|DICT|INTERRES
   128   64  127 1    
   129   65   66 2    
@<TRIPOS>SUBSTRUCTURE
     1 UNK         1 GROUP             0       ****    0 ROOT    
