@<TRIPOS>MOLECULE
3R135
127   129    1
SMALL
USER_CHARGES


@<TRIPOS>ATOM
      1 CA        -79.3645   28.5976  -70.4666 C.3       0 UNK        -0.1998 
      2 C         -80.6020   28.6031  -71.3476 C.2       0 UNK         0.4909 
      3 O         -81.7178   28.6850  -70.8330 O.2       0 UNK        -0.5240 
      4 N         -80.4192   28.5031  -72.6727 N.am      1 UNK        -0.4739 
      5 CA        -81.5184   28.4120  -73.6452 C.3       1 UNK         0.0864 
      6 C6        -81.0806   28.8320  -75.0736 C.3       11 UNK        -0.0881 
      7 S7        -79.9350   27.6819  -75.9198 S.3       11 UNK        -0.2682 
      8 C8        -78.4025   28.6612  -76.0047 C.3       11 UNK         0.0289 
      9 C9        -77.7021   28.7199  -74.6568 C.ar      11 UNK        -0.0687 
     10 C10       -77.2146   27.5467  -74.0771 C.ar      11 UNK        -0.0823 
     11 C11       -76.5998   27.5701  -72.8215 C.ar      11 UNK        -0.0830 
     12 C12       -76.4347   28.7946  -72.1672 C.ar      11 UNK        -0.1021 
     13 C13       -76.8975   29.9804  -72.7468 C.ar      11 UNK        -0.0753 
     14 C14       -77.5386   29.9361  -73.9885 C.ar      11 UNK        -0.0933 
     15 C15       -76.7275   31.3093  -72.0256 C.3       11 UNK         0.0166 
     16 S16       -75.2621   32.2156  -72.6118 S.3       11 UNK        -0.2615 
     17 C17       -73.9244   31.3671  -71.7040 C.3       11 UNK        -0.0865 
     18 CA        -72.5167   31.7092  -72.2583 C.3       10 UNK         0.0862 
     19 C         -71.3976   31.1558  -71.3245 C.2       10 UNK         0.5551 
     20 N         -70.4914   30.2999  -71.7834 N.am      10 UNK        -0.7319 
     21 O         -71.3481   31.5198  -70.1521 O.2       10 UNK        -0.5018 
     22 N         -72.3865   31.3144  -73.6694 N.am      10 UNK        -0.4509 
     23 C         -71.4863   31.8075  -74.5282 C.2       10 UNK         0.4899 
     24 O         -70.7103   32.7250  -74.2555 O.2       10 UNK        -0.4839 
     25 CA        -71.4459   31.1449  -75.9215 C.3       9 UNK         0.0222 
     26 CB        -70.1377   31.4425  -76.6848 C.3       9 UNK        -0.1966 
     27 N         -71.7013   29.6961  -75.8870 N.am      9 UNK        -0.4218 
     28 C         -71.0174   28.7653  -75.1996 C.2       9 UNK         0.5020 
     29 O         -70.0697   29.0219  -74.4557 O.2       9 UNK        -0.5274 
     30 CA        -71.4867   27.3032  -75.3242 C.3       8 UNK         0.0270 
     31 CB        -72.2439   26.8853  -74.0518 C.3       8 UNK        -0.1976 
     32 N         -72.3302   27.0490  -76.4986 N.am      8 UNK        -0.4313 
     33 C         -71.8907   27.0157  -77.7666 C.2       8 UNK         0.5041 
     34 O         -70.7016   27.1228  -78.0701 O.2       8 UNK        -0.5577 
     35 CA        -72.9460   26.9085  -78.8881 C.3       7 UNK         0.0284 
     36 CB        -72.4830   26.0182  -80.0621 C.3       7 UNK        -0.1958 
     37 N         -74.2904   26.5503  -78.4110 N.am      7 UNK        -0.4454 
     38 C         -74.7202   25.3564  -77.9779 C.2       7 UNK         0.5089 
     39 O         -74.0600   24.3159  -78.0162 O.2       7 UNK        -0.5125 
     40 CA        -76.1492   25.3484  -77.4015 C.3       6 UNK         0.0408 
     41 CB        -77.1847   25.2136  -78.5278 C.3       6 UNK        -0.1791 
     42 N         -76.3754   24.3079  -76.3903 N.am      6 UNK        -0.4762 
     43 C         -75.6818   24.1955  -75.2440 C.2       6 UNK         0.5007 
     44 O         -74.7722   24.9667  -74.9392 O.2       6 UNK        -0.5032 
     45 CA        -76.0679   23.0697  -74.2566 C.3       5 UNK         0.0783 
     46 C46       -76.0491   23.5257  -72.7709 C.3       11 UNK        -0.0857 
     47 S47       -77.2223   24.8711  -72.3634 S.3       11 UNK        -0.2512 
     48 C48       -76.0794   26.2890  -72.1796 C.3       11 UNK         0.0225 
     49 N         -77.3462   22.4434  -74.6048 N.am      5 UNK        -0.4615 
     50 C         -77.4868   21.2456  -75.1866 C.2       4 UNK         0.5053 
     51 O         -76.5434   20.5174  -75.4952 O.2       4 UNK        -0.5105 
     52 CA        -78.9237   20.7766  -75.4832 C.3       4 UNK         0.0263 
     53 CB        -79.4368   19.8763  -74.3481 C.3       4 UNK        -0.1981 
     54 N         -79.8738   21.8736  -75.6885 N.am      4 UNK        -0.4224 
     55 C         -79.8235   22.7717  -76.6795 C.2       3 UNK         0.4895 
     56 O         -78.9643   22.7551  -77.5594 O.2       3 UNK        -0.5091 
     57 CA        -80.8674   23.9036  -76.6745 C.3       3 UNK         0.0250 
     58 CB        -82.1330   23.4965  -77.4528 C.3       3 UNK        -0.1996 
     59 N         -81.1940   24.4323  -75.3402 N.am      3 UNK        -0.4254 
     60 C         -81.8340   23.8341  -74.3226 C.2       2 UNK         0.5004 
     61 O         -82.2523   22.6768  -74.3680 O.2       2 UNK        -0.5226 
     62 CA        -81.9869   24.6254  -73.0110 C.3       2 UNK         0.0269 
     63 CB        -81.2212   23.9295  -71.8721 C.3       2 UNK        -0.1926 
     64 N         -81.5187   26.0099  -73.1067 N.am      2 UNK        -0.4687 
     65 C         -82.2150   27.0317  -73.6266 C.2       1 UNK         0.5165 
     66 O         -83.3526   26.9164  -74.0843 O.2       1 UNK        -0.5079 
     67 H67       -78.6850   27.7984  -70.7603 H         1 UNK         0.0900 
     68 H68       -78.8434   29.5513  -70.5371 H         1 UNK         0.0900 
     69 H69       -79.6354   28.4361  -69.4235 H         1 UNK         0.0900 
     70 H70       -79.4826   28.4575  -73.0548 H         1 UNK         0.2959 
     71 H71       -82.2817   29.1289  -73.3330 H         1 UNK         0.1079 
     72 H72       -80.6392   29.8291  -75.0398 H         1 UNK         0.0837 
     73 H73       -81.9631   28.9347  -75.7080 H         1 UNK         0.0837 
     74 H74       -77.7336   28.2046  -76.7341 H         1 UNK         0.0685 
     75 H75       -78.6254   29.6607  -76.3813 H         1 UNK         0.0685 
     76 H76       -77.3336   26.6094  -74.6018 H         1 UNK         0.1434 
     77 H77       -75.9503   28.8255  -71.2008 H         1 UNK         0.1329 
     78 H78       -77.9055   30.8510  -74.4337 H         1 UNK         0.1335 
     79 H79       -77.6109   31.9277  -72.1917 H         1 UNK         0.0680 
     80 H80       -76.6617   31.1599  -70.9467 H         1 UNK         0.0680 
     81 H81       -74.0069   31.6541  -70.6538 H         1 UNK         0.1032 
     82 H82       -74.0841   30.2890  -71.7396 H         1 UNK         0.1032 
     83 H83       -72.4123   32.7953  -72.2180 H         1 UNK         0.0461 
     84 H84       -70.4882   29.9985  -72.7517 H         1 UNK         0.3453 
     85 H85       -69.7778   29.9632  -71.1572 H         1 UNK         0.3453 
     86 H86       -72.9917   30.5691  -73.9784 H         1 UNK         0.2984 
     87 H87       -72.2660   31.5868  -76.4891 H         1 UNK         0.0554 
     88 H88       -70.1400   30.9809  -77.6722 H         1 UNK         0.0847 
     89 H89       -69.2636   31.0754  -76.1458 H         1 UNK         0.0847 
     90 H90       -70.0030   32.5150  -76.8307 H         1 UNK         0.0847 
     91 H91       -72.4798   29.3771  -76.4453 H         1 UNK         0.3141 
     92 H92       -70.5906   26.6844  -75.4058 H         1 UNK         0.0743 
     93 H93       -73.2001   27.4019  -73.9578 H         1 UNK         0.0784 
     94 H94       -72.4387   25.8131  -74.0456 H         1 UNK         0.0784 
     95 H95       -71.6632   27.1069  -73.1550 H         1 UNK         0.0784 
     96 H96       -73.3131   26.8923  -76.3243 H         1 UNK         0.3213 
     97 H97       -73.0436   27.9209  -79.2834 H         1 UNK         0.0855 
     98 H98       -72.2370   25.0073  -79.7367 H         1 UNK         0.0814 
     99 H99       -71.5877   26.4283  -80.5310 H         1 UNK         0.0814 
    100 H100      -73.2479   25.9477  -80.8353 H         1 UNK         0.0814 
    101 H101      -74.9387   27.3248  -78.3582 H         1 UNK         0.3105 
    102 H102      -76.3106   26.3066  -76.9053 H         1 UNK         0.0547 
    103 H103      -77.1244   24.2392  -79.0143 H         1 UNK         0.0837 
    104 H104      -78.1985   25.3410  -78.1497 H         1 UNK         0.0837 
    105 H105      -77.0357   25.9711  -79.2983 H         1 UNK         0.0837 
    106 H106      -77.0847   23.6176  -76.6023 H         1 UNK         0.3020 
    107 H107      -75.2700   22.3308  -74.3605 H         1 UNK         0.1245 
    108 H108      -75.0376   23.8103  -72.4768 H         1 UNK         0.0781 
    109 H109      -76.2944   22.6752  -72.1331 H         1 UNK         0.0781 
    110 H110      -75.1092   26.0691  -72.6234 H         1 UNK         0.0836 
    111 H111      -75.8976   26.4393  -71.1144 H         1 UNK         0.0836 
    112 H112      -78.1738   22.9760  -74.3807 H         1 UNK         0.3022 
    113 H113      -78.8923   20.1886  -76.4028 H         1 UNK         0.0747 
    114 H114      -80.4195   19.4657  -74.5808 H         1 UNK         0.0793 
    115 H115      -78.7650   19.0324  -74.1837 H         1 UNK         0.0793 
    116 H116      -79.5151   20.4204  -73.4058 H         1 UNK         0.0793 
    117 H117      -80.6526   21.9488  -75.0384 H         1 UNK         0.3047 
    118 H118      -80.4154   24.7394  -77.2109 H         1 UNK         0.0822 
    119 H119      -82.6383   22.6437  -76.9988 H         1 UNK         0.0807 
    120 H120      -81.8842   23.2156  -78.4771 H         1 UNK         0.0807 
    121 H121      -82.8459   24.3194  -77.5067 H         1 UNK         0.0807 
    122 H122      -80.8726   25.3769  -75.1736 H         1 UNK         0.2946 
    123 H123      -83.0503   24.6286  -72.7607 H         1 UNK         0.1144 
    124 H124      -81.3525   24.4554  -70.9262 H         1 UNK         0.0793 
    125 H125      -80.1519   23.8725  -72.0788 H         1 UNK         0.0793 
    126 H126      -81.5785   22.9095  -71.7240 H         1 UNK         0.0793 
    127 H127      -80.5923   26.2035  -72.7539 H         1 UNK         0.2896 
@<TRIPOS>BOND
     1    1    2 1    
     2    1   67 1    
     3    1   68 1    
     4    1   69 1    
     5    2    3 2    
     6    2    4 am   BACKBONE|DICT|INTERRES
     7    4    5 1    
     8    4   70 1    
     9    5    6 1    
    10    5   65 1    
    11    5   71 1    
    12    6    7 1    
    13    6   72 1    
    14    6   73 1    
    15    7    8 1    
    16    8    9 1    
    17    8   74 1    
    18    8   75 1    
    19    9   10 ar   
    20    9   14 ar   
    21   10   11 ar   
    22   10   76 1    
    23   11   12 ar   
    24   11   48 1    
    25   12   13 ar   
    26   12   77 1    
    27   13   14 ar   
    28   13   15 1    
    29   14   78 1    
    30   15   16 1    
    31   15   79 1    
    32   15   80 1    
    33   16   17 1    
    34   17   18 1    
    35   17   81 1    
    36   17   82 1    
    37   18   19 1    
    38   18   22 1    
    39   18   83 1    
    40   19   20 am   BACKBONE|DICT|INTERRES
    41   19   21 2    
    42   20   84 1    
    43   20   85 1    
    44   22   23 am   BACKBONE|DICT|INTERRES
    45   22   86 1    
    46   23   24 2    
    47   23   25 1    
    48   25   26 1    
    49   25   27 1    
    50   25   87 1    
    51   26   88 1    
    52   26   89 1    
    53   26   90 1    
    54   27   28 am   BACKBONE|DICT|INTERRES
    55   27   91 1    
    56   28   29 2    
    57   28   30 1    
    58   30   31 1    
    59   30   32 1    
    60   30   92 1    
    61   31   93 1    
    62   31   94 1    
    63   31   95 1    
    64   32   33 am   BACKBONE|DICT|INTERRES
    65   32   96 1    
    66   33   34 2    
    67   33   35 1    
    68   35   36 1    
    69   35   37 1    
    70   35   97 1    
    71   36   98 1    
    72   36   99 1    
    73   36  100 1    
    74   37   38 am   BACKBONE|DICT|INTERRES
    75   37  101 1    
    76   38   39 2    
    77   38   40 1    
    78   40   41 1    
    79   40   42 1    
    80   40  102 1    
    81   41  103 1    
    82   41  104 1    
    83   41  105 1    
    84   42   43 am   BACKBONE|DICT|INTERRES
    85   42  106 1    
    86   43   44 2    
    87   43   45 1    
    88   45   46 1    
    89   45   49 1    
    90   45  107 1    
    91   46   47 1    
    92   46  108 1    
    93   46  109 1    
    94   47   48 1    
    95   48  110 1    
    96   48  111 1    
    97   49   50 am   BACKBONE|DICT|INTERRES
    98   49  112 1    
    99   50   51 2    
   100   50   52 1    
   101   52   53 1    
   102   52   54 1    
   103   52  113 1    
   104   53  114 1    
   105   53  115 1    
   106   53  116 1    
   107   54   55 am   BACKBONE|DICT|INTERRES
   108   54  117 1    
   109   55   56 2    
   110   55   57 1    
   111   57   58 1    
   112   57   59 1    
   113   57  118 1    
   114   58  119 1    
   115   58  120 1    
   116   58  121 1    
   117   59   60 am   BACKBONE|DICT|INTERRES
   118   59  122 1    
   119   60   61 2    
   120   60   62 1    
   121   62   63 1    
   122   62   64 1    
   123   62  123 1    
   124   63  124 1    
   125   63  125 1    
   126   63  126 1    
   127   64   65 am   BACKBONE|DICT|INTERRES
   128   64  127 1    
   129   65   66 2    
@<TRIPOS>SUBSTRUCTURE
     1 UNK         1 GROUP             0       ****    0 ROOT    
