@<TRIPOS>MOLECULE
3R135
127   129    1
SMALL
USER_CHARGES


@<TRIPOS>ATOM
      1 CA        -81.7224   26.1841  -69.8719 C.3       0 UNK        -0.1998 
      2 C         -82.3707   26.6999  -71.1478 C.2       0 UNK         0.4909 
      3 O         -83.5852   26.5836  -71.3113 O.2       0 UNK        -0.5240 
      4 N         -81.5655   27.2630  -72.0566 N.am      1 UNK        -0.4739 
      5 CA        -82.0038   27.8018  -73.3515 C.3       1 UNK         0.0864 
      6 C6        -81.0144   28.8759  -73.8687 C.3       11 UNK        -0.0881 
      7 S7        -81.1217   30.4497  -72.9444 S.3       11 UNK        -0.2682 
      8 C8        -80.0025   30.2186  -71.5191 C.3       11 UNK         0.0289 
      9 C9        -78.6308   29.6772  -71.9003 C.ar      11 UNK        -0.0687 
     10 C10       -78.1503   28.5100  -71.2994 C.ar      11 UNK        -0.0823 
     11 C11       -76.9114   27.9771  -71.6684 C.ar      11 UNK        -0.0830 
     12 C12       -76.1385   28.6419  -72.6251 C.ar      11 UNK        -0.1021 
     13 C13       -76.5958   29.8223  -73.2166 C.ar      11 UNK        -0.0753 
     14 C14       -77.8428   30.3354  -72.8501 C.ar      11 UNK        -0.0933 
     15 C15       -75.7565   30.5323  -74.2684 C.3       11 UNK         0.0166 
     16 S16       -74.9395   32.0190  -73.6059 S.3       11 UNK        -0.2615 
     17 C17       -73.6363   31.3105  -72.5382 C.3       11 UNK        -0.0865 
     18 CA        -72.2353   31.3451  -73.2049 C.3       10 UNK         0.0862 
     19 C         -71.1113   30.9715  -72.1919 C.2       10 UNK         0.5551 
     20 N         -70.2619   29.9843  -72.4546 N.am      10 UNK        -0.7319 
     21 O         -71.0017   31.6013  -71.1428 O.2       10 UNK        -0.5018 
     22 N         -72.2132   30.5549  -74.4447 N.am      10 UNK        -0.4509 
     23 C         -71.3984   30.7685  -75.4836 C.2       10 UNK         0.4899 
     24 O         -70.6123   31.7144  -75.5571 O.2       10 UNK        -0.4839 
     25 CA        -71.4789   29.7344  -76.6251 C.3       9 UNK         0.0222 
     26 CB        -70.2404   29.7616  -77.5455 C.3       9 UNK        -0.1966 
     27 N         -71.7439   28.3661  -76.1555 N.am      9 UNK        -0.4218 
     28 C         -70.9966   27.6423  -75.3029 C.2       9 UNK         0.5020 
     29 O         -69.9799   28.0740  -74.7573 O.2       9 UNK        -0.5274 
     30 CA        -71.4630   26.2136  -74.9569 C.3       8 UNK         0.0270 
     31 CB        -71.9186   26.1466  -73.4891 C.3       8 UNK        -0.1976 
     32 N         -72.5369   25.7174  -75.8233 N.am      8 UNK        -0.4313 
     33 C         -72.3689   25.3502  -77.1040 C.2       8 UNK         0.5041 
     34 O         -71.2657   25.2889  -77.6485 O.2       8 UNK        -0.5577 
     35 CA        -73.6239   25.0251  -77.9416 C.3       7 UNK         0.0284 
     36 CB        -73.7773   23.5034  -78.0987 C.3       7 UNK        -0.1958 
     37 N         -74.8794   25.5801  -77.4250 N.am      7 UNK        -0.4454 
     38 C         -75.1289   26.8712  -77.1620 C.2       7 UNK         0.5089 
     39 O         -74.3344   27.7844  -77.3886 O.2       7 UNK        -0.5125 
     40 CA        -76.4525   27.1868  -76.4435 C.3       6 UNK         0.0408 
     41 CB        -77.5663   27.4762  -77.4595 C.3       6 UNK        -0.1791 
     42 N         -76.8959   26.1376  -75.5187 N.am      6 UNK        -0.4762 
     43 C         -76.1857   25.6382  -74.4940 C.2       6 UNK         0.5007 
     44 O         -75.0272   25.9644  -74.2376 O.2       6 UNK        -0.5032 
     45 CA        -76.8785   24.5542  -73.6515 C.3       5 UNK         0.0783 
     46 C46       -78.0287   25.1454  -72.7874 C.3       11 UNK        -0.0857 
     47 S47       -77.5965   25.3248  -71.0256 S.3       11 UNK        -0.2512 
     48 C48       -76.3892   26.6959  -71.0273 C.3       11 UNK         0.0225 
     49 N         -77.3444   23.4914  -74.5421 N.am      5 UNK        -0.4615 
     50 C         -76.5626   22.5309  -75.0542 C.2       4 UNK         0.5053 
     51 O         -75.3879   22.3613  -74.7295 O.2       4 UNK        -0.5105 
     52 CA        -77.1859   21.6053  -76.1162 C.3       4 UNK         0.0263 
     53 CB        -77.6457   20.2869  -75.4735 C.3       4 UNK        -0.1981 
     54 N         -78.3137   22.2108  -76.8301 N.am      4 UNK        -0.4224 
     55 C         -78.2172   23.2485  -77.6741 C.2       3 UNK         0.4895 
     56 O         -77.1538   23.7825  -77.9868 O.2       3 UNK        -0.5091 
     57 CA        -79.5419   23.8279  -78.2028 C.3       3 UNK         0.0250 
     58 CB        -80.0118   23.0563  -79.4460 C.3       3 UNK        -0.1996 
     59 N         -80.6139   23.8494  -77.1976 N.am      3 UNK        -0.4254 
     60 C         -80.5432   24.5009  -76.0284 C.2       2 UNK         0.5004 
     61 O         -79.5534   25.1407  -75.6637 O.2       2 UNK        -0.5226 
     62 CA        -81.7385   24.3511  -75.0752 C.3       2 UNK         0.0269 
     63 CB        -81.6318   23.0322  -74.2914 C.3       2 UNK        -0.1926 
     64 N         -81.7790   25.4616  -74.1229 N.am      2 UNK        -0.4687 
     65 C         -82.2086   26.6973  -74.4142 C.2       1 UNK         0.5165 
     66 O         -82.7456   26.9868  -75.4851 O.2       1 UNK        -0.5079 
     67 H67       -80.6366   26.2742  -69.8990 H         1 UNK         0.0900 
     68 H68       -82.0890   26.7445  -69.0124 H         1 UNK         0.0900 
     69 H69       -81.9692   25.1330  -69.7240 H         1 UNK         0.0900 
     70 H70       -80.5760   27.3326  -71.8722 H         1 UNK         0.2959 
     71 H71       -82.9801   28.2741  -73.2194 H         1 UNK         0.1079 
     72 H72       -81.2354   29.1310  -74.9073 H         1 UNK         0.0837 
     73 H73       -79.9915   28.4966  -73.8793 H         1 UNK         0.0837 
     74 H74       -79.8729   31.1794  -71.0194 H         1 UNK         0.0685 
     75 H75       -80.4918   29.5659  -70.7951 H         1 UNK         0.0685 
     76 H76       -78.7416   28.0063  -70.5476 H         1 UNK         0.1434 
     77 H77       -75.1773   28.2388  -72.9126 H         1 UNK         0.1329 
     78 H78       -78.2056   31.2434  -73.3121 H         1 UNK         0.1335 
     79 H79       -76.3993   30.8275  -75.0990 H         1 UNK         0.0680 
     80 H80       -75.0091   29.8595  -74.6906 H         1 UNK         0.0680 
     81 H81       -73.6321   31.8955  -71.6165 H         1 UNK         0.1032 
     82 H82       -73.8965   30.2948  -72.2398 H         1 UNK         0.1032 
     83 H83       -72.0389   32.3845  -73.4752 H         1 UNK         0.0461 
     84 H84       -69.5426   29.7694  -71.7829 H         1 UNK         0.3453 
     85 H85       -70.3041   29.4641  -73.3237 H         1 UNK         0.3453 
     86 H86       -72.8077   29.7415  -74.4657 H         1 UNK         0.2984 
     87 H87       -72.3430   30.0177  -77.2278 H         1 UNK         0.0554 
     88 H88       -70.1153   30.7420  -78.0066 H         1 UNK         0.0847 
     89 H89       -70.3305   29.0348  -78.3528 H         1 UNK         0.0847 
     90 H90       -69.3240   29.5413  -76.9968 H         1 UNK         0.0847 
     91 H91       -72.5879   27.9438  -76.5352 H         1 UNK         0.3141 
     92 H92       -70.6008   25.5538  -75.0739 H         1 UNK         0.0743 
     93 H93       -72.7268   26.8493  -73.2837 H         1 UNK         0.0784 
     94 H94       -72.2661   25.1479  -73.2236 H         1 UNK         0.0784 
     95 H95       -71.0978   26.3939  -72.8145 H         1 UNK         0.0784 
     96 H96       -73.4753   25.7361  -75.4310 H         1 UNK         0.3213 
     97 H97       -73.4658   25.4581  -78.9313 H         1 UNK         0.0855 
     98 H98       -73.9919   23.0208  -77.1444 H         1 UNK         0.0814 
     99 H99       -72.8648   23.0550  -78.4940 H         1 UNK         0.0814 
    100 H100      -74.5826   23.2540  -78.7898 H         1 UNK         0.0814 
    101 H101      -75.6351   24.9184  -77.2746 H         1 UNK         0.3105 
    102 H102      -76.2951   28.0871  -75.8484 H         1 UNK         0.0547 
    103 H103      -77.2922   28.3059  -78.1123 H         1 UNK         0.0837 
    104 H104      -77.7628   26.6126  -78.0947 H         1 UNK         0.0837 
    105 H105      -78.4982   27.7472  -76.9626 H         1 UNK         0.0837 
    106 H106      -77.8475   25.7960  -75.6472 H         1 UNK         0.3020 
    107 H107      -76.1216   24.1249  -72.9905 H         1 UNK         0.1245 
    108 H108      -78.8926   24.4800  -72.8102 H         1 UNK         0.0781 
    109 H109      -78.4044   26.0969  -73.1700 H         1 UNK         0.0781 
    110 H110      -75.4774   26.3579  -71.5219 H         1 UNK         0.0836 
    111 H111      -76.1095   26.9137  -69.9958 H         1 UNK         0.0836 
    112 H112      -78.2755   23.6114  -74.9175 H         1 UNK         0.3022 
    113 H113      -76.4074   21.3786  -76.8481 H         1 UNK         0.0747 
    114 H114      -78.0168   19.5876  -76.2230 H         1 UNK         0.0793 
    115 H115      -76.8195   19.7960  -74.9569 H         1 UNK         0.0793 
    116 H116      -78.4377   20.4483  -74.7410 H         1 UNK         0.0793 
    117 H117      -79.2305   21.8349  -76.6372 H         1 UNK         0.3047 
    118 H118      -79.3513   24.8613  -78.4980 H         1 UNK         0.0822 
    119 H119      -80.8939   23.5181  -79.8900 H         1 UNK         0.0807 
    120 H120      -80.2562   22.0192  -79.2128 H         1 UNK         0.0807 
    121 H121      -79.2357   23.0436  -80.2129 H         1 UNK         0.0807 
    122 H122      -81.4542   23.3351  -77.4217 H         1 UNK         0.2946 
    123 H123      -82.6608   24.3488  -75.6611 H         1 UNK         0.1144 
    124 H124      -82.4695   22.9129  -73.6038 H         1 UNK         0.0793 
    125 H125      -80.7116   22.9772  -73.7085 H         1 UNK         0.0793 
    126 H126      -81.6442   22.1724  -74.9624 H         1 UNK         0.0793 
    127 H127      -81.3357   25.3147  -73.2291 H         1 UNK         0.2896 
@<TRIPOS>BOND
     1    1    2 1    
     2    1   67 1    
     3    1   68 1    
     4    1   69 1    
     5    2    3 2    
     6    2    4 am   BACKBONE|DICT|INTERRES
     7    4    5 1    
     8    4   70 1    
     9    5    6 1    
    10    5   65 1    
    11    5   71 1    
    12    6    7 1    
    13    6   72 1    
    14    6   73 1    
    15    7    8 1    
    16    8    9 1    
    17    8   74 1    
    18    8   75 1    
    19    9   10 ar   
    20    9   14 ar   
    21   10   11 ar   
    22   10   76 1    
    23   11   12 ar   
    24   11   48 1    
    25   12   13 ar   
    26   12   77 1    
    27   13   14 ar   
    28   13   15 1    
    29   14   78 1    
    30   15   16 1    
    31   15   79 1    
    32   15   80 1    
    33   16   17 1    
    34   17   18 1    
    35   17   81 1    
    36   17   82 1    
    37   18   19 1    
    38   18   22 1    
    39   18   83 1    
    40   19   20 am   BACKBONE|DICT|INTERRES
    41   19   21 2    
    42   20   84 1    
    43   20   85 1    
    44   22   23 am   BACKBONE|DICT|INTERRES
    45   22   86 1    
    46   23   24 2    
    47   23   25 1    
    48   25   26 1    
    49   25   27 1    
    50   25   87 1    
    51   26   88 1    
    52   26   89 1    
    53   26   90 1    
    54   27   28 am   BACKBONE|DICT|INTERRES
    55   27   91 1    
    56   28   29 2    
    57   28   30 1    
    58   30   31 1    
    59   30   32 1    
    60   30   92 1    
    61   31   93 1    
    62   31   94 1    
    63   31   95 1    
    64   32   33 am   BACKBONE|DICT|INTERRES
    65   32   96 1    
    66   33   34 2    
    67   33   35 1    
    68   35   36 1    
    69   35   37 1    
    70   35   97 1    
    71   36   98 1    
    72   36   99 1    
    73   36  100 1    
    74   37   38 am   BACKBONE|DICT|INTERRES
    75   37  101 1    
    76   38   39 2    
    77   38   40 1    
    78   40   41 1    
    79   40   42 1    
    80   40  102 1    
    81   41  103 1    
    82   41  104 1    
    83   41  105 1    
    84   42   43 am   BACKBONE|DICT|INTERRES
    85   42  106 1    
    86   43   44 2    
    87   43   45 1    
    88   45   46 1    
    89   45   49 1    
    90   45  107 1    
    91   46   47 1    
    92   46  108 1    
    93   46  109 1    
    94   47   48 1    
    95   48  110 1    
    96   48  111 1    
    97   49   50 am   BACKBONE|DICT|INTERRES
    98   49  112 1    
    99   50   51 2    
   100   50   52 1    
   101   52   53 1    
   102   52   54 1    
   103   52  113 1    
   104   53  114 1    
   105   53  115 1    
   106   53  116 1    
   107   54   55 am   BACKBONE|DICT|INTERRES
   108   54  117 1    
   109   55   56 2    
   110   55   57 1    
   111   57   58 1    
   112   57   59 1    
   113   57  118 1    
   114   58  119 1    
   115   58  120 1    
   116   58  121 1    
   117   59   60 am   BACKBONE|DICT|INTERRES
   118   59  122 1    
   119   60   61 2    
   120   60   62 1    
   121   62   63 1    
   122   62   64 1    
   123   62  123 1    
   124   63  124 1    
   125   63  125 1    
   126   63  126 1    
   127   64   65 am   BACKBONE|DICT|INTERRES
   128   64  127 1    
   129   65   66 2    
@<TRIPOS>SUBSTRUCTURE
     1 UNK         1 GROUP             0       ****    0 ROOT    
