@<TRIPOS>MOLECULE
3R135
127   129    1
SMALL
USER_CHARGES


@<TRIPOS>ATOM
      1 CA        -83.4787   29.2431  -76.1605 C.3       0 UNK        -0.1998 
      2 C         -82.2821   28.4047  -75.7392 C.2       0 UNK         0.4909 
      3 O         -82.4481   27.2367  -75.3883 O.2       0 UNK        -0.5240 
      4 N         -81.0720   28.9823  -75.7945 N.am      1 UNK        -0.4739 
      5 CA        -79.7966   28.3686  -75.3851 C.3       1 UNK         0.0864 
      6 C6        -79.7214   28.1782  -73.8438 C.3       11 UNK        -0.0881 
      7 S7        -78.0071   28.2340  -73.2379 S.3       11 UNK        -0.2682 
      8 C8        -78.2217   28.2639  -71.4355 C.3       11 UNK         0.0289 
      9 C9        -76.8569   28.1327  -70.7823 C.ar      11 UNK        -0.0687 
     10 C10       -76.2474   26.8778  -70.7132 C.ar      11 UNK        -0.0823 
     11 C11       -74.9378   26.7419  -70.2375 C.ar      11 UNK        -0.0830 
     12 C12       -74.2665   27.8797  -69.7822 C.ar      11 UNK        -0.1021 
     13 C13       -74.8712   29.1402  -69.8229 C.ar      11 UNK        -0.0753 
     14 C14       -76.1743   29.2600  -70.3162 C.ar      11 UNK        -0.0933 
     15 C15       -74.0991   30.3618  -69.3404 C.3       11 UNK         0.0166 
     16 S16       -72.6196   30.6747  -70.3631 S.3       11 UNK        -0.2615 
     17 C17       -73.1268   31.9875  -71.5328 C.3       11 UNK        -0.0865 
     18 CA        -74.4917   31.7976  -72.2586 C.3       10 UNK         0.0862 
     19 C         -74.8474   33.0113  -73.1725 C.2       10 UNK         0.5551 
     20 N         -75.5283   32.8179  -74.2956 N.am      10 UNK        -0.7319 
     21 O         -74.5324   34.1527  -72.8439 O.2       10 UNK        -0.5018 
     22 N         -74.6484   30.4791  -72.8986 N.am      10 UNK        -0.4509 
     23 C         -73.9151   29.9764  -73.8980 C.2       10 UNK         0.4899 
     24 O         -72.9549   30.5465  -74.4211 O.2       10 UNK        -0.4839 
     25 CA        -74.4178   28.6362  -74.4585 C.3       9 UNK         0.0222 
     26 CB        -75.5037   28.9018  -75.5147 C.3       9 UNK        -0.1966 
     27 N         -73.3544   27.8239  -75.0557 N.am      9 UNK        -0.4218 
     28 C         -72.3363   27.2710  -74.3782 C.2       9 UNK         0.5020 
     29 O         -72.2222   27.3400  -73.1540 O.2       9 UNK        -0.5274 
     30 CA        -71.2780   26.4961  -75.1894 C.3       8 UNK         0.0270 
     31 CB        -70.6709   25.3232  -74.3957 C.3       8 UNK        -0.1976 
     32 N         -71.8314   25.9770  -76.4411 N.am      8 UNK        -0.4313 
     33 C         -71.4914   26.3824  -77.6717 C.2       8 UNK         0.5041 
     34 O         -70.6187   27.2202  -77.9023 O.2       8 UNK        -0.5577 
     35 CA        -72.2669   25.7660  -78.8533 C.3       7 UNK         0.0284 
     36 CB        -71.4673   24.6100  -79.4757 C.3       7 UNK        -0.1958 
     37 N         -73.6062   25.2871  -78.4951 N.am      7 UNK        -0.4454 
     38 C         -74.6048   26.0644  -78.0538 C.2       7 UNK         0.5089 
     39 O         -74.5160   27.2875  -77.9645 O.2       7 UNK        -0.5125 
     40 CA        -75.9068   25.3673  -77.6131 C.3       6 UNK         0.0408 
     41 CB        -76.2155   24.0937  -78.4285 C.3       6 UNK        -0.1791 
     42 N         -75.9762   25.0669  -76.1755 N.am      6 UNK        -0.4762 
     43 C         -75.0716   24.4117  -75.4269 C.2       6 UNK         0.5007 
     44 O         -73.9532   24.0903  -75.8318 O.2       6 UNK        -0.5032 
     45 CA        -75.4661   24.0080  -73.9914 C.3       5 UNK         0.0783 
     46 C46       -74.6114   24.7436  -72.9320 C.3       11 UNK        -0.0857 
     47 S47       -74.9016   24.0799  -71.2559 S.3       11 UNK        -0.2512 
     48 C48       -74.2022   25.4003  -70.2040 C.3       11 UNK         0.0225 
     49 N         -76.9017   24.1314  -73.7169 N.am      5 UNK        -0.4615 
     50 C         -77.8300   23.2464  -74.0989 C.2       4 UNK         0.5053 
     51 O         -77.6000   22.3002  -74.8527 O.2       4 UNK        -0.5105 
     52 CA        -79.2407   23.4083  -73.5131 C.3       4 UNK         0.0263 
     53 CB        -79.3418   24.4545  -72.3839 C.3       4 UNK        -0.1981 
     54 N         -80.1610   23.7654  -74.5876 N.am      4 UNK        -0.4224 
     55 C         -81.2251   23.0432  -74.9669 C.2       3 UNK         0.4895 
     56 O         -81.5578   21.9844  -74.4317 O.2       3 UNK        -0.5091 
     57 CA        -82.0903   23.5836  -76.1226 C.3       3 UNK         0.0250 
     58 CB        -83.4712   24.0193  -75.6040 C.3       3 UNK        -0.1996 
     59 N         -81.4699   24.7048  -76.8319 N.am      3 UNK        -0.4254 
     60 C         -80.5230   24.5688  -77.7726 C.2       2 UNK         0.5004 
     61 O         -80.1372   23.4798  -78.1975 O.2       2 UNK        -0.5226 
     62 CA        -79.8781   25.8531  -78.3277 C.3       2 UNK         0.0269 
     63 CB        -80.5034   26.2243  -79.6818 C.3       2 UNK        -0.1926 
     64 N         -79.9609   27.0103  -77.4307 N.am      2 UNK        -0.4687 
     65 C         -79.4507   27.0876  -76.1915 C.2       1 UNK         0.5165 
     66 O         -78.7787   26.1836  -75.6880 O.2       1 UNK        -0.5079 
     67 H67       -83.1876   30.2501  -76.4585 H         1 UNK         0.0900 
     68 H68       -83.9880   28.7732  -77.0013 H         1 UNK         0.0900 
     69 H69       -84.1863   29.3244  -75.3359 H         1 UNK         0.0900 
     70 H70       -81.0036   29.9399  -76.1124 H         1 UNK         0.2959 
     71 H71       -79.0335   29.0951  -75.6693 H         1 UNK         0.1079 
     72 H72       -80.2103   27.2538  -73.5335 H         1 UNK         0.0837 
     73 H73       -80.2615   28.9829  -73.3424 H         1 UNK         0.0837 
     74 H74       -78.7127   29.1915  -71.1371 H         1 UNK         0.0685 
     75 H75       -78.8701   27.4441  -71.1223 H         1 UNK         0.0685 
     76 H76       -76.7917   26.0173  -71.0718 H         1 UNK         0.1434 
     77 H77       -73.2540   27.7910  -69.4118 H         1 UNK         0.1329 
     78 H78       -76.6480   30.2309  -70.3636 H         1 UNK         0.1335 
     79 H79       -73.7748   30.1807  -68.3147 H         1 UNK         0.0680 
     80 H80       -74.7303   31.2502  -69.3023 H         1 UNK         0.0680 
     81 H81       -72.3292   32.0944  -72.2699 H         1 UNK         0.1032 
     82 H82       -73.1321   32.9241  -70.9724 H         1 UNK         0.1032 
     83 H83       -75.2662   31.8290  -71.4944 H         1 UNK         0.0461 
     84 H84       -75.8005   31.8899  -74.5730 H         1 UNK         0.3453 
     85 H85       -75.7630   33.6098  -74.8732 H         1 UNK         0.3453 
     86 H86       -75.4114   29.9194  -72.5442 H         1 UNK         0.2984 
     87 H87       -74.8593   28.0664  -73.6386 H         1 UNK         0.0554 
     88 H88       -76.2755   29.5723  -75.1373 H         1 UNK         0.0847 
     89 H89       -76.0025   27.9792  -75.8104 H         1 UNK         0.0847 
     90 H90       -75.0902   29.3689  -76.4091 H         1 UNK         0.0847 
     91 H91       -73.3742   27.7336  -76.0638 H         1 UNK         0.3141 
     92 H92       -70.4760   27.2078  -75.3949 H         1 UNK         0.0743 
     93 H93       -71.4203   24.5712  -74.1493 H         1 UNK         0.0784 
     94 H94       -69.8824   24.8311  -74.9651 H         1 UNK         0.0784 
     95 H95       -70.2249   25.6639  -73.4604 H         1 UNK         0.0784 
     96 H96       -72.5707   25.2822  -76.3456 H         1 UNK         0.3213 
     97 H97       -72.3846   26.5477  -79.6070 H         1 UNK         0.0855 
     98 H98       -71.3345   23.7865  -78.7728 H         1 UNK         0.0814 
     99 H99       -70.4734   24.9425  -79.7790 H         1 UNK         0.0814 
    100 H100      -71.9607   24.2183  -80.3654 H         1 UNK         0.0814 
    101 H101      -73.7469   24.2870  -78.4914 H         1 UNK         0.3105 
    102 H102      -76.7027   26.0862  -77.8062 H         1 UNK         0.0547 
    103 H103      -76.1816   24.2924  -79.5006 H         1 UNK         0.0837 
    104 H104      -75.5147   23.2857  -78.2172 H         1 UNK         0.0837 
    105 H105      -77.2143   23.7191  -78.2031 H         1 UNK         0.0837 
    106 H106      -76.8541   25.3212  -75.7328 H         1 UNK         0.3020 
    107 H107      -75.2137   22.9470  -73.9202 H         1 UNK         0.1245 
    108 H108      -74.8217   25.8133  -72.9471 H         1 UNK         0.0781 
    109 H109      -73.5476   24.6363  -73.1461 H         1 UNK         0.0781 
    110 H110      -73.1614   25.5498  -70.4971 H         1 UNK         0.0836 
    111 H111      -74.1850   25.0443  -69.1732 H         1 UNK         0.0836 
    112 H112      -77.1785   24.8954  -73.1198 H         1 UNK         0.3022 
    113 H113      -79.5052   22.4384  -73.0870 H         1 UNK         0.0747 
    114 H114      -80.3586   24.5122  -71.9950 H         1 UNK         0.0793 
    115 H115      -78.6941   24.1939  -71.5455 H         1 UNK         0.0793 
    116 H116      -79.0642   25.4501  -72.7246 H         1 UNK         0.0793 
    117 H117      -79.9131   24.5957  -75.1157 H         1 UNK         0.3047 
    118 H118      -82.2401   22.7624  -76.8270 H         1 UNK         0.0822 
    119 H119      -84.0986   24.3992  -76.4104 H         1 UNK         0.0807 
    120 H120      -83.3898   24.7985  -74.8454 H         1 UNK         0.0807 
    121 H121      -84.0001   23.1800  -75.1503 H         1 UNK         0.0807 
    122 H122      -81.7290   25.6350  -76.5175 H         1 UNK         0.2946 
    123 H123      -78.8239   25.6315  -78.4909 H         1 UNK         0.1144 
    124 H124      -80.4346   25.3929  -80.3851 H         1 UNK         0.0793 
    125 H125      -79.9919   27.0727  -80.1369 H         1 UNK         0.0793 
    126 H126      -81.5590   26.4803  -79.5822 H         1 UNK         0.0793 
    127 H127      -80.5099   27.7928  -77.7566 H         1 UNK         0.2896 
@<TRIPOS>BOND
     1    1    2 1    
     2    1   67 1    
     3    1   68 1    
     4    1   69 1    
     5    2    3 2    
     6    2    4 am   BACKBONE|DICT|INTERRES
     7    4    5 1    
     8    4   70 1    
     9    5    6 1    
    10    5   65 1    
    11    5   71 1    
    12    6    7 1    
    13    6   72 1    
    14    6   73 1    
    15    7    8 1    
    16    8    9 1    
    17    8   74 1    
    18    8   75 1    
    19    9   10 ar   
    20    9   14 ar   
    21   10   11 ar   
    22   10   76 1    
    23   11   12 ar   
    24   11   48 1    
    25   12   13 ar   
    26   12   77 1    
    27   13   14 ar   
    28   13   15 1    
    29   14   78 1    
    30   15   16 1    
    31   15   79 1    
    32   15   80 1    
    33   16   17 1    
    34   17   18 1    
    35   17   81 1    
    36   17   82 1    
    37   18   19 1    
    38   18   22 1    
    39   18   83 1    
    40   19   20 am   BACKBONE|DICT|INTERRES
    41   19   21 2    
    42   20   84 1    
    43   20   85 1    
    44   22   23 am   BACKBONE|DICT|INTERRES
    45   22   86 1    
    46   23   24 2    
    47   23   25 1    
    48   25   26 1    
    49   25   27 1    
    50   25   87 1    
    51   26   88 1    
    52   26   89 1    
    53   26   90 1    
    54   27   28 am   BACKBONE|DICT|INTERRES
    55   27   91 1    
    56   28   29 2    
    57   28   30 1    
    58   30   31 1    
    59   30   32 1    
    60   30   92 1    
    61   31   93 1    
    62   31   94 1    
    63   31   95 1    
    64   32   33 am   BACKBONE|DICT|INTERRES
    65   32   96 1    
    66   33   34 2    
    67   33   35 1    
    68   35   36 1    
    69   35   37 1    
    70   35   97 1    
    71   36   98 1    
    72   36   99 1    
    73   36  100 1    
    74   37   38 am   BACKBONE|DICT|INTERRES
    75   37  101 1    
    76   38   39 2    
    77   38   40 1    
    78   40   41 1    
    79   40   42 1    
    80   40  102 1    
    81   41  103 1    
    82   41  104 1    
    83   41  105 1    
    84   42   43 am   BACKBONE|DICT|INTERRES
    85   42  106 1    
    86   43   44 2    
    87   43   45 1    
    88   45   46 1    
    89   45   49 1    
    90   45  107 1    
    91   46   47 1    
    92   46  108 1    
    93   46  109 1    
    94   47   48 1    
    95   48  110 1    
    96   48  111 1    
    97   49   50 am   BACKBONE|DICT|INTERRES
    98   49  112 1    
    99   50   51 2    
   100   50   52 1    
   101   52   53 1    
   102   52   54 1    
   103   52  113 1    
   104   53  114 1    
   105   53  115 1    
   106   53  116 1    
   107   54   55 am   BACKBONE|DICT|INTERRES
   108   54  117 1    
   109   55   56 2    
   110   55   57 1    
   111   57   58 1    
   112   57   59 1    
   113   57  118 1    
   114   58  119 1    
   115   58  120 1    
   116   58  121 1    
   117   59   60 am   BACKBONE|DICT|INTERRES
   118   59  122 1    
   119   60   61 2    
   120   60   62 1    
   121   62   63 1    
   122   62   64 1    
   123   62  123 1    
   124   63  124 1    
   125   63  125 1    
   126   63  126 1    
   127   64   65 am   BACKBONE|DICT|INTERRES
   128   64  127 1    
   129   65   66 2    
@<TRIPOS>SUBSTRUCTURE
     1 UNK         1 GROUP             0       ****    0 ROOT    
