@<TRIPOS>MOLECULE
3R135
127   129    1
SMALL
USER_CHARGES


@<TRIPOS>ATOM
      1 CA        -82.1637   29.4715  -77.3087 C.3       0 UNK        -0.1998 
      2 C         -82.6438   30.1827  -76.0456 C.2       0 UNK         0.4909 
      3 O         -83.5500   31.0104  -76.1273 O.2       0 UNK        -0.5240 
      4 N         -82.0684   29.9156  -74.8651 N.am      1 UNK        -0.4739 
      5 CA        -81.0375   28.9090  -74.5841 C.3       1 UNK         0.0864 
      6 C6        -80.1951   29.2978  -73.3427 C.3       11 UNK        -0.0881 
      7 S7        -81.1642   29.4759  -71.8058 S.3       11 UNK        -0.2682 
      8 C8        -79.9226   30.2408  -70.7068 C.3       11 UNK         0.0289 
      9 C9        -78.6636   29.4014  -70.4883 C.ar      11 UNK        -0.0687 
     10 C10       -78.7149   28.0034  -70.4257 C.ar      11 UNK        -0.0823 
     11 C11       -77.5551   27.2541  -70.2142 C.ar      11 UNK        -0.0830 
     12 C12       -76.3357   27.9112  -70.0304 C.ar      11 UNK        -0.1021 
     13 C13       -76.2684   29.3065  -70.0799 C.ar      11 UNK        -0.0753 
     14 C14       -77.4332   30.0440  -70.3149 C.ar      11 UNK        -0.0933 
     15 C15       -74.9431   30.0151  -69.8381 C.3       11 UNK         0.0166 
     16 S16       -73.7610   29.7700  -71.2002 S.3       11 UNK        -0.2615 
     17 C17       -74.4789   30.7946  -72.5348 C.3       11 UNK        -0.0865 
     18 CA        -74.7534   29.9905  -73.8412 C.3       10 UNK         0.0862 
     19 C         -75.4637   30.8520  -74.9314 C.2       10 UNK         0.5551 
     20 N         -75.2493   30.6030  -76.2177 N.am      10 UNK        -0.7319 
     21 O         -76.2459   31.7433  -74.6104 O.2       10 UNK        -0.5018 
     22 N         -73.5678   29.2409  -74.3021 N.am      10 UNK        -0.4509 
     23 C         -72.4090   29.7832  -74.7008 C.2       10 UNK         0.4899 
     24 O         -72.2497   30.9896  -74.8913 O.2       10 UNK        -0.4839 
     25 CA        -71.1917   28.8589  -74.8581 C.3       9 UNK         0.0222 
     26 CB        -70.3563   28.8989  -73.5605 C.3       9 UNK        -0.1966 
     27 N         -71.5187   27.4721  -75.2142 N.am      9 UNK        -0.4218 
     28 C         -70.6199   26.5948  -75.6869 C.2       9 UNK         0.5020 
     29 O         -69.4382   26.8709  -75.9027 O.2       9 UNK        -0.5274 
     30 CA        -71.1040   25.1616  -75.9650 C.3       8 UNK         0.0270 
     31 CB        -71.2649   24.3747  -74.6544 C.3       8 UNK        -0.1976 
     32 N         -72.3438   25.1160  -76.7414 N.am      8 UNK        -0.4313 
     33 C         -72.4447   25.5034  -78.0217 C.2       8 UNK         0.5041 
     34 O         -71.4940   25.9003  -78.6972 O.2       8 UNK        -0.5577 
     35 CA        -73.8393   25.4394  -78.6653 C.3       7 UNK         0.0284 
     36 CB        -74.0921   24.0459  -79.2619 C.3       7 UNK        -0.1958 
     37 N         -74.9141   25.7821  -77.7320 N.am      7 UNK        -0.4454 
     38 C         -75.0903   27.0015  -77.2013 C.2       7 UNK         0.5089 
     39 O         -74.4006   27.9845  -77.4753 O.2       7 UNK        -0.5125 
     40 CA        -76.1939   27.1375  -76.1427 C.3       6 UNK         0.0408 
     41 CB        -77.5774   27.2205  -76.8043 C.3       6 UNK        -0.1791 
     42 N         -76.1556   26.0651  -75.1463 N.am      6 UNK        -0.4762 
     43 C         -75.1202   25.8221  -74.3270 C.2       6 UNK         0.5007 
     44 O         -74.0998   26.5126  -74.2963 O.2       6 UNK        -0.5032 
     45 CA        -75.1859   24.5655  -73.4406 C.3       5 UNK         0.0783 
     46 C46       -75.6869   24.8615  -72.0063 C.3       11 UNK        -0.0857 
     47 S47       -77.4942   25.0287  -71.8478 S.3       11 UNK        -0.2512 
     48 C48       -77.6346   25.7363  -70.1778 C.3       11 UNK         0.0225 
     49 N         -75.8921   23.4617  -74.0954 N.am      5 UNK        -0.4615 
     50 C         -75.3810   22.7594  -75.1142 C.2       4 UNK         0.5053 
     51 O         -74.2729   22.9789  -75.6058 O.2       4 UNK        -0.5105 
     52 CA        -76.2605   21.6391  -75.6913 C.3       4 UNK         0.0263 
     53 CB        -76.4201   20.4862  -74.6861 C.3       4 UNK        -0.1981 
     54 N         -77.5799   22.1072  -76.1222 N.am      4 UNK        -0.4224 
     55 C         -77.7837   22.9962  -77.1037 C.2       3 UNK         0.4895 
     56 O         -76.8820   23.5607  -77.7231 O.2       3 UNK        -0.5091 
     57 CA        -79.2452   23.3269  -77.4519 C.3       3 UNK         0.0250 
     58 CB        -79.8748   22.1870  -78.2700 C.3       3 UNK        -0.1996 
     59 N         -80.1301   23.6731  -76.3295 N.am      3 UNK        -0.4254 
     60 C         -79.8420   24.5092  -75.3226 C.2       2 UNK         0.5004 
     61 O         -78.7079   24.9001  -75.0424 O.2       2 UNK        -0.5226 
     62 CA        -81.0215   25.0638  -74.5198 C.3       2 UNK         0.0269 
     63 CB        -81.1553   24.3794  -73.1507 C.3       2 UNK        -0.1926 
     64 N         -80.7436   26.4870  -74.3491 N.am      2 UNK        -0.4687 
     65 C         -81.6260   27.4787  -74.5007 C.2       1 UNK         0.5165 
     66 O         -82.8406   27.2913  -74.6135 O.2       1 UNK        -0.5079 
     67 H67       -81.1140   29.6883  -77.5037 H         1 UNK         0.0900 
     68 H68       -82.7345   29.8073  -78.1743 H         1 UNK         0.0900 
     69 H69       -82.2951   28.3932  -77.2279 H         1 UNK         0.0900 
     70 H70       -82.4252   30.3804  -74.0422 H         1 UNK         0.2959 
     71 H71       -80.3452   28.8963  -75.4275 H         1 UNK         0.1079 
     72 H72       -79.6908   30.2464  -73.5364 H         1 UNK         0.0837 
     73 H73       -79.3932   28.5765  -73.1761 H         1 UNK         0.0837 
     74 H74       -79.6594   31.2171  -71.1172 H         1 UNK         0.0685 
     75 H75       -80.3856   30.4278  -69.7373 H         1 UNK         0.0685 
     76 H76       -79.6583   27.4903  -70.5508 H         1 UNK         0.1434 
     77 H77       -75.4355   27.3407  -69.8477 H         1 UNK         0.1329 
     78 H78       -77.3846   31.1240  -70.3462 H         1 UNK         0.1335 
     79 H79       -74.4993   29.6287  -68.9195 H         1 UNK         0.0680 
     80 H80       -75.0915   31.0839  -69.6758 H         1 UNK         0.0680 
     81 H81       -73.7981   31.6237  -72.7339 H         1 UNK         0.1032 
     82 H82       -75.4017   31.2508  -72.1733 H         1 UNK         0.1032 
     83 H83       -75.4848   29.2243  -73.5817 H         1 UNK         0.0461 
     84 H84       -74.6476   29.8418  -76.5068 H         1 UNK         0.3453 
     85 H85       -75.7146   31.1660  -76.9109 H         1 UNK         0.3453 
     86 H86       -73.6420   28.2342  -74.1860 H         1 UNK         0.2984 
     87 H87       -70.5915   29.2784  -75.6684 H         1 UNK         0.0554 
     88 H88       -69.3987   28.3918  -73.6758 H         1 UNK         0.0847 
     89 H89       -70.8870   28.4300  -72.7307 H         1 UNK         0.0847 
     90 H90       -70.1366   29.9260  -73.2655 H         1 UNK         0.0847 
     91 H91       -72.4742   27.1590  -75.0662 H         1 UNK         0.3141 
     92 H92       -70.3332   24.6619  -76.5559 H         1 UNK         0.0743 
     93 H93       -71.5957   23.3525  -74.8398 H         1 UNK         0.0784 
     94 H94       -70.3152   24.3157  -74.1211 H         1 UNK         0.0784 
     95 H95       -71.9809   24.8459  -73.9825 H         1 UNK         0.0784 
     96 H96       -73.1632   24.7324  -76.2847 H         1 UNK         0.3213 
     97 H97       -73.8599   26.1673  -79.4794 H         1 UNK         0.0855 
     98 H98       -74.1220   23.2762  -78.4892 H         1 UNK         0.0814 
     99 H99       -73.3056   23.7728  -79.9667 H         1 UNK         0.0814 
    100 H100      -75.0378   24.0125  -79.8029 H         1 UNK         0.0814 
    101 H101      -75.5539   25.0336  -77.4785 H         1 UNK         0.3105 
    102 H102      -76.0318   28.0701  -75.6076 H         1 UNK         0.0547 
    103 H103      -77.8358   26.2950  -77.3193 H         1 UNK         0.0837 
    104 H104      -78.3537   27.4252  -76.0690 H         1 UNK         0.0837 
    105 H105      -77.6101   28.0249  -77.5403 H         1 UNK         0.0837 
    106 H106      -76.9813   25.4694  -75.0866 H         1 UNK         0.3020 
    107 H107      -74.1488   24.2433  -73.3269 H         1 UNK         0.1245 
    108 H108      -75.3798   24.0479  -71.3474 H         1 UNK         0.0781 
    109 H109      -75.2015   25.7560  -71.6129 H         1 UNK         0.0781 
    110 H110      -78.5887   25.4284  -69.7473 H         1 UNK         0.0836 
    111 H111      -76.8629   25.3225  -69.5267 H         1 UNK         0.0836 
    112 H112      -76.8360   23.2829  -73.7825 H         1 UNK         0.3022 
    113 H113      -75.7480   21.2468  -76.5725 H         1 UNK         0.0747 
    114 H114      -76.9409   19.6400  -75.1347 H         1 UNK         0.0793 
    115 H115      -75.4471   20.1239  -74.3510 H         1 UNK         0.0793 
    116 H116      -76.9777   20.7908  -73.7996 H         1 UNK         0.0793 
    117 H117      -78.3847   21.7210  -75.6509 H         1 UNK         0.3047 
    118 H118      -79.2139   24.2100  -78.0933 H         1 UNK         0.0822 
    119 H119      -80.8433   22.4775  -78.6776 H         1 UNK         0.0807 
    120 H120      -80.0199   21.2888  -77.6685 H         1 UNK         0.0807 
    121 H121      -79.2410   21.9145  -79.1154 H         1 UNK         0.0807 
    122 H122      -81.0930   23.3890  -76.4397 H         1 UNK         0.2946 
    123 H123      -81.9431   24.9225  -75.0894 H         1 UNK         0.1144 
    124 H124      -81.9868   24.7967  -72.5825 H         1 UNK         0.0793 
    125 H125      -80.2534   24.4937  -72.5508 H         1 UNK         0.0793 
    126 H126      -81.3408   23.3107  -73.2640 H         1 UNK         0.0793 
    127 H127      -79.7549   26.6928  -74.2792 H         1 UNK         0.2896 
@<TRIPOS>BOND
     1    1    2 1    
     2    1   67 1    
     3    1   68 1    
     4    1   69 1    
     5    2    3 2    
     6    2    4 am   BACKBONE|DICT|INTERRES
     7    4    5 1    
     8    4   70 1    
     9    5    6 1    
    10    5   65 1    
    11    5   71 1    
    12    6    7 1    
    13    6   72 1    
    14    6   73 1    
    15    7    8 1    
    16    8    9 1    
    17    8   74 1    
    18    8   75 1    
    19    9   10 ar   
    20    9   14 ar   
    21   10   11 ar   
    22   10   76 1    
    23   11   12 ar   
    24   11   48 1    
    25   12   13 ar   
    26   12   77 1    
    27   13   14 ar   
    28   13   15 1    
    29   14   78 1    
    30   15   16 1    
    31   15   79 1    
    32   15   80 1    
    33   16   17 1    
    34   17   18 1    
    35   17   81 1    
    36   17   82 1    
    37   18   19 1    
    38   18   22 1    
    39   18   83 1    
    40   19   20 am   BACKBONE|DICT|INTERRES
    41   19   21 2    
    42   20   84 1    
    43   20   85 1    
    44   22   23 am   BACKBONE|DICT|INTERRES
    45   22   86 1    
    46   23   24 2    
    47   23   25 1    
    48   25   26 1    
    49   25   27 1    
    50   25   87 1    
    51   26   88 1    
    52   26   89 1    
    53   26   90 1    
    54   27   28 am   BACKBONE|DICT|INTERRES
    55   27   91 1    
    56   28   29 2    
    57   28   30 1    
    58   30   31 1    
    59   30   32 1    
    60   30   92 1    
    61   31   93 1    
    62   31   94 1    
    63   31   95 1    
    64   32   33 am   BACKBONE|DICT|INTERRES
    65   32   96 1    
    66   33   34 2    
    67   33   35 1    
    68   35   36 1    
    69   35   37 1    
    70   35   97 1    
    71   36   98 1    
    72   36   99 1    
    73   36  100 1    
    74   37   38 am   BACKBONE|DICT|INTERRES
    75   37  101 1    
    76   38   39 2    
    77   38   40 1    
    78   40   41 1    
    79   40   42 1    
    80   40  102 1    
    81   41  103 1    
    82   41  104 1    
    83   41  105 1    
    84   42   43 am   BACKBONE|DICT|INTERRES
    85   42  106 1    
    86   43   44 2    
    87   43   45 1    
    88   45   46 1    
    89   45   49 1    
    90   45  107 1    
    91   46   47 1    
    92   46  108 1    
    93   46  109 1    
    94   47   48 1    
    95   48  110 1    
    96   48  111 1    
    97   49   50 am   BACKBONE|DICT|INTERRES
    98   49  112 1    
    99   50   51 2    
   100   50   52 1    
   101   52   53 1    
   102   52   54 1    
   103   52  113 1    
   104   53  114 1    
   105   53  115 1    
   106   53  116 1    
   107   54   55 am   BACKBONE|DICT|INTERRES
   108   54  117 1    
   109   55   56 2    
   110   55   57 1    
   111   57   58 1    
   112   57   59 1    
   113   57  118 1    
   114   58  119 1    
   115   58  120 1    
   116   58  121 1    
   117   59   60 am   BACKBONE|DICT|INTERRES
   118   59  122 1    
   119   60   61 2    
   120   60   62 1    
   121   62   63 1    
   122   62   64 1    
   123   62  123 1    
   124   63  124 1    
   125   63  125 1    
   126   63  126 1    
   127   64   65 am   BACKBONE|DICT|INTERRES
   128   64  127 1    
   129   65   66 2    
@<TRIPOS>SUBSTRUCTURE
     1 UNK         1 GROUP             0       ****    0 ROOT    
