@<TRIPOS>MOLECULE
3R135
127   129    1
SMALL
USER_CHARGES


@<TRIPOS>ATOM
      1 CA        -80.9217   24.7508  -71.7599 C.3       0 UNK        -0.1998 
      2 C         -81.7201   25.6671  -72.6725 C.2       0 UNK         0.4909 
      3 O         -82.7284   25.2444  -73.2409 O.2       0 UNK        -0.5240 
      4 N         -81.2683   26.9175  -72.8388 N.am      1 UNK        -0.4739 
      5 CA        -81.8595   27.9147  -73.7428 C.3       1 UNK         0.0864 
      6 C6        -81.6005   29.3667  -73.2671 C.3       11 UNK        -0.0881 
      7 S7        -82.3297   29.6673  -71.6201 S.3       11 UNK        -0.2682 
      8 C8        -81.0778   30.7326  -70.8270 C.3       11 UNK         0.0289 
      9 C9        -79.6861   30.1118  -70.7156 C.ar      11 UNK        -0.0687 
     10 C10       -79.5049   28.7593  -70.4019 C.ar      11 UNK        -0.0823 
     11 C11       -78.2204   28.2135  -70.3035 C.ar      11 UNK        -0.0830 
     12 C12       -77.1098   29.0496  -70.4579 C.ar      11 UNK        -0.1021 
     13 C13       -77.2743   30.3965  -70.7913 C.ar      11 UNK        -0.0753 
     14 C14       -78.5636   30.9197  -70.9173 C.ar      11 UNK        -0.0933 
     15 C15       -76.0647   31.2859  -71.0361 C.3       11 UNK         0.0166 
     16 S16       -75.2708   30.8922  -72.6281 S.3       11 UNK        -0.2615 
     17 C17       -74.0823   29.5931  -72.1406 C.3       11 UNK        -0.0865 
     18 CA        -72.7105   29.7912  -72.8374 C.3       10 UNK         0.0862 
     19 C         -71.5692   28.9975  -72.1305 C.2       10 UNK         0.5551 
     20 N         -70.6916   28.2944  -72.8357 N.am      10 UNK        -0.7319 
     21 O         -71.4640   29.0325  -70.9069 O.2       10 UNK        -0.5018 
     22 N         -72.8179   29.5343  -74.2819 N.am      10 UNK        -0.4509 
     23 C         -72.0830   30.1229  -75.2311 C.2       10 UNK         0.4899 
     24 O         -71.2831   31.0356  -75.0165 O.2       10 UNK        -0.4839 
     25 CA        -72.2502   29.5478  -76.6522 C.3       9 UNK         0.0222 
     26 CB        -71.2867   30.1795  -77.6784 C.3       9 UNK        -0.1966 
     27 N         -72.1395   28.0824  -76.6737 N.am      9 UNK        -0.4218 
     28 C         -71.1173   27.3388  -76.2181 C.2       9 UNK         0.5020 
     29 O         -70.0838   27.8170  -75.7489 O.2       9 UNK        -0.5274 
     30 CA        -71.2703   25.8065  -76.2262 C.3       8 UNK         0.0270 
     31 CB        -71.2904   25.2704  -74.7843 C.3       8 UNK        -0.1976 
     32 N         -72.4702   25.3403  -76.9239 N.am      8 UNK        -0.4313 
     33 C         -72.5837   25.2392  -78.2546 C.2       8 UNK         0.5041 
     34 O         -71.6654   25.4761  -79.0404 O.2       8 UNK        -0.5577 
     35 CA        -73.9635   24.8406  -78.8052 C.3       7 UNK         0.0284 
     36 CB        -74.1388   23.3146  -78.7729 C.3       7 UNK        -0.1958 
     37 N         -75.0806   25.4855  -78.1052 N.am      7 UNK        -0.4454 
     38 C         -75.2878   26.8102  -78.0601 C.2       7 UNK         0.5089 
     39 O         -74.5435   27.6387  -78.5834 O.2       7 UNK        -0.5125 
     40 CA        -76.5104   27.3021  -77.2711 C.3       6 UNK         0.0408 
     41 CB        -77.7933   27.1482  -78.0970 C.3       6 UNK        -0.1791 
     42 N         -76.6496   26.6252  -75.9806 N.am      6 UNK        -0.4762 
     43 C         -75.8166   26.8278  -74.9495 C.2       6 UNK         0.5007 
     44 O         -74.8914   27.6422  -74.9666 O.2       6 UNK        -0.5032 
     45 CA        -76.0011   25.9318  -73.7106 C.3       5 UNK         0.0783 
     46 C46       -77.0755   26.4916  -72.7443 C.3       11 UNK        -0.0857 
     47 S47       -76.7771   25.8889  -71.0448 S.3       11 UNK        -0.2512 
     48 C48       -78.0517   26.7219  -70.0268 C.3       11 UNK         0.0225 
     49 N         -76.2517   24.5342  -74.0809 N.am      5 UNK        -0.4615 
     50 C         -75.3622   23.7559  -74.7133 C.2       4 UNK         0.5053 
     51 O         -74.2429   24.1341  -75.0529 O.2       4 UNK        -0.5105 
     52 CA        -75.7947   22.3227  -75.0567 C.3       4 UNK         0.0263 
     53 CB        -75.5599   21.3906  -73.8576 C.3       4 UNK        -0.1981 
     54 N         -77.1854   22.2104  -75.4992 N.am      4 UNK        -0.4224 
     55 C         -77.7252   22.8363  -76.5550 C.2       3 UNK         0.4895 
     56 O         -77.1069   23.6210  -77.2776 O.2       3 UNK        -0.5091 
     57 CA        -79.2049   22.5307  -76.8668 C.3       3 UNK         0.0250 
     58 CB        -79.9277   21.7196  -75.7649 C.3       3 UNK        -0.1996 
     59 N         -79.9877   23.7305  -77.1850 N.am      3 UNK        -0.4254 
     60 C         -80.1190   24.8322  -76.4316 C.2       2 UNK         0.5004 
     61 O         -79.4692   25.0380  -75.4012 O.2       2 UNK        -0.5226 
     62 CA        -81.1663   25.8673  -76.8968 C.3       2 UNK         0.0269 
     63 CB        -82.3065   25.2562  -77.7373 C.3       2 UNK        -0.1926 
     64 N         -81.7485   26.4970  -75.7163 N.am      2 UNK        -0.4687 
     65 C         -81.3563   27.6560  -75.1777 C.2       1 UNK         0.5165 
     66 O         -80.6024   28.4558  -75.7354 O.2       1 UNK        -0.5079 
     67 H67       -81.1073   24.9980  -70.7151 H         1 UNK         0.0900 
     68 H68       -79.8545   24.8345  -71.9618 H         1 UNK         0.0900 
     69 H69       -81.2071   23.7110  -71.9186 H         1 UNK         0.0900 
     70 H70       -80.4212   27.2090  -72.3747 H         1 UNK         0.2959 
     71 H71       -82.9430   27.7740  -73.7622 H         1 UNK         0.1079 
     72 H72       -80.5300   29.5782  -73.2509 H         1 UNK         0.0837 
     73 H73       -82.0415   30.0822  -73.9637 H         1 UNK         0.0837 
     74 H74       -81.4235   30.9864  -69.8242 H         1 UNK         0.0685 
     75 H75       -81.0329   31.6702  -71.3835 H         1 UNK         0.0685 
     76 H76       -80.3692   28.1299  -70.2409 H         1 UNK         0.1434 
     77 H77       -76.1149   28.6395  -70.3600 H         1 UNK         0.1329 
     78 H78       -78.6934   31.9632  -71.1705 H         1 UNK         0.1335 
     79 H79       -76.3660   32.3344  -71.0566 H         1 UNK         0.0680 
     80 H80       -75.3563   31.1965  -70.2117 H         1 UNK         0.0680 
     81 H81       -73.9674   29.6145  -71.0561 H         1 UNK         0.1032 
     82 H82       -74.5013   28.6141  -72.3778 H         1 UNK         0.1032 
     83 H83       -72.4325   30.8383  -72.7029 H         1 UNK         0.0461 
     84 H84       -70.7037   28.2957  -73.8481 H         1 UNK         0.3453 
     85 H85       -69.9613   27.8015  -72.3477 H         1 UNK         0.3453 
     86 H86       -73.4735   28.8054  -74.5548 H         1 UNK         0.2984 
     87 H87       -73.2691   29.7833  -76.9633 H         1 UNK         0.0554 
     88 H88       -71.4543   29.7770  -78.6774 H         1 UNK         0.0847 
     89 H89       -70.2427   30.0036  -77.4166 H         1 UNK         0.0847 
     90 H90       -71.4302   31.2591  -77.7358 H         1 UNK         0.0847 
     91 H91       -72.9480   27.5980  -77.0444 H         1 UNK         0.3141 
     92 H92       -70.3922   25.3948  -76.7282 H         1 UNK         0.0743 
     93 H93       -70.3711   25.5266  -74.2562 H         1 UNK         0.0784 
     94 H94       -72.1212   25.6865  -74.2124 H         1 UNK         0.0784 
     95 H95       -71.3810   24.1842  -74.7650 H         1 UNK         0.0784 
     96 H96       -73.2530   25.0562  -76.3361 H         1 UNK         0.3213 
     97 H97       -74.0053   25.1634  -79.8477 H         1 UNK         0.0855 
     98 H98       -74.1067   22.9285  -77.7545 H         1 UNK         0.0814 
     99 H99       -73.3458   22.8190  -79.3345 H         1 UNK         0.0814 
    100 H100      -75.0879   23.0132  -79.2166 H         1 UNK         0.0814 
    101 H101      -75.7676   24.8694  -77.6736 H         1 UNK         0.3105 
    102 H102      -76.3700   28.3683  -77.0791 H         1 UNK         0.0547 
    103 H103      -78.6295   27.6346  -77.5970 H         1 UNK         0.0837 
    104 H104      -77.6874   27.6194  -79.0751 H         1 UNK         0.0837 
    105 H105      -78.0476   26.1014  -78.2646 H         1 UNK         0.0837 
    106 H106      -77.3746   25.9221  -75.8948 H         1 UNK         0.3020 
    107 H107      -75.0372   25.9562  -73.1958 H         1 UNK         0.1245 
    108 H108      -78.0811   26.2193  -73.0693 H         1 UNK         0.0781 
    109 H109      -77.0437   27.5820  -72.7308 H         1 UNK         0.0781 
    110 H110      -77.7921   26.5924  -68.9754 H         1 UNK         0.0836 
    111 H111      -78.9970   26.2000  -70.1679 H         1 UNK         0.0836 
    112 H112      -77.1658   24.1624  -73.8679 H         1 UNK         0.3022 
    113 H113      -75.1652   21.9781  -75.8786 H         1 UNK         0.0747 
    114 H114      -75.7636   20.3512  -74.1157 H         1 UNK         0.0793 
    115 H115      -74.5227   21.4411  -73.5226 H         1 UNK         0.0793 
    116 H116      -76.1897   21.6567  -73.0077 H         1 UNK         0.0793 
    117 H117      -77.7785   21.5923  -74.9649 H         1 UNK         0.3047 
    118 H118      -79.1960   21.9230  -77.7728 H         1 UNK         0.0822 
    119 H119      -79.4620   20.7455  -75.6098 H         1 UNK         0.0807 
    120 H120      -80.9647   21.5269  -76.0408 H         1 UNK         0.0807 
    121 H121      -79.9384   22.2470  -74.8097 H         1 UNK         0.0807 
    122 H122      -80.5283   23.6780  -78.0365 H         1 UNK         0.2946 
    123 H123      -80.6562   26.6126  -77.5075 H         1 UNK         0.1144 
    124 H124      -81.9448   24.8886  -78.6981 H         1 UNK         0.0793 
    125 H125      -83.0723   26.0006  -77.9570 H         1 UNK         0.0793 
    126 H126      -82.7927   24.4268  -77.2213 H         1 UNK         0.0793 
    127 H127      -82.2922   25.8866  -75.1139 H         1 UNK         0.2896 
@<TRIPOS>BOND
     1    1    2 1    
     2    1   67 1    
     3    1   68 1    
     4    1   69 1    
     5    2    3 2    
     6    2    4 am   BACKBONE|DICT|INTERRES
     7    4    5 1    
     8    4   70 1    
     9    5    6 1    
    10    5   65 1    
    11    5   71 1    
    12    6    7 1    
    13    6   72 1    
    14    6   73 1    
    15    7    8 1    
    16    8    9 1    
    17    8   74 1    
    18    8   75 1    
    19    9   10 ar   
    20    9   14 ar   
    21   10   11 ar   
    22   10   76 1    
    23   11   12 ar   
    24   11   48 1    
    25   12   13 ar   
    26   12   77 1    
    27   13   14 ar   
    28   13   15 1    
    29   14   78 1    
    30   15   16 1    
    31   15   79 1    
    32   15   80 1    
    33   16   17 1    
    34   17   18 1    
    35   17   81 1    
    36   17   82 1    
    37   18   19 1    
    38   18   22 1    
    39   18   83 1    
    40   19   20 am   BACKBONE|DICT|INTERRES
    41   19   21 2    
    42   20   84 1    
    43   20   85 1    
    44   22   23 am   BACKBONE|DICT|INTERRES
    45   22   86 1    
    46   23   24 2    
    47   23   25 1    
    48   25   26 1    
    49   25   27 1    
    50   25   87 1    
    51   26   88 1    
    52   26   89 1    
    53   26   90 1    
    54   27   28 am   BACKBONE|DICT|INTERRES
    55   27   91 1    
    56   28   29 2    
    57   28   30 1    
    58   30   31 1    
    59   30   32 1    
    60   30   92 1    
    61   31   93 1    
    62   31   94 1    
    63   31   95 1    
    64   32   33 am   BACKBONE|DICT|INTERRES
    65   32   96 1    
    66   33   34 2    
    67   33   35 1    
    68   35   36 1    
    69   35   37 1    
    70   35   97 1    
    71   36   98 1    
    72   36   99 1    
    73   36  100 1    
    74   37   38 am   BACKBONE|DICT|INTERRES
    75   37  101 1    
    76   38   39 2    
    77   38   40 1    
    78   40   41 1    
    79   40   42 1    
    80   40  102 1    
    81   41  103 1    
    82   41  104 1    
    83   41  105 1    
    84   42   43 am   BACKBONE|DICT|INTERRES
    85   42  106 1    
    86   43   44 2    
    87   43   45 1    
    88   45   46 1    
    89   45   49 1    
    90   45  107 1    
    91   46   47 1    
    92   46  108 1    
    93   46  109 1    
    94   47   48 1    
    95   48  110 1    
    96   48  111 1    
    97   49   50 am   BACKBONE|DICT|INTERRES
    98   49  112 1    
    99   50   51 2    
   100   50   52 1    
   101   52   53 1    
   102   52   54 1    
   103   52  113 1    
   104   53  114 1    
   105   53  115 1    
   106   53  116 1    
   107   54   55 am   BACKBONE|DICT|INTERRES
   108   54  117 1    
   109   55   56 2    
   110   55   57 1    
   111   57   58 1    
   112   57   59 1    
   113   57  118 1    
   114   58  119 1    
   115   58  120 1    
   116   58  121 1    
   117   59   60 am   BACKBONE|DICT|INTERRES
   118   59  122 1    
   119   60   61 2    
   120   60   62 1    
   121   62   63 1    
   122   62   64 1    
   123   62  123 1    
   124   63  124 1    
   125   63  125 1    
   126   63  126 1    
   127   64   65 am   BACKBONE|DICT|INTERRES
   128   64  127 1    
   129   65   66 2    
@<TRIPOS>SUBSTRUCTURE
     1 UNK         1 GROUP             0       ****    0 ROOT    
