@<TRIPOS>MOLECULE
3R135
127   129    1
SMALL
USER_CHARGES


@<TRIPOS>ATOM
      1 CA        -83.7694   30.2620  -77.2507 C.3       0 UNK        -0.1998 
      2 C         -82.6602   29.2623  -76.9588 C.2       0 UNK         0.4909 
      3 O         -82.1911   28.5836  -77.8735 O.2       0 UNK        -0.5240 
      4 N         -82.2316   29.1738  -75.6937 N.am      1 UNK        -0.4739 
      5 CA        -81.2036   28.2388  -75.2210 C.3       1 UNK         0.0864 
      6 C6        -80.6544   28.6379  -73.8283 C.3       11 UNK        -0.0881 
      7 S7        -79.9588   30.3255  -73.8071 S.3       11 UNK        -0.2682 
      8 C8        -79.6165   30.5540  -72.0341 C.3       11 UNK         0.0289 
      9 C9        -78.4052   29.7485  -71.5897 C.ar      11 UNK        -0.0687 
     10 C10       -78.5695   28.4841  -71.0209 C.ar      11 UNK        -0.0823 
     11 C11       -77.4574   27.7252  -70.6474 C.ar      11 UNK        -0.0830 
     12 C12       -76.1739   28.2598  -70.8090 C.ar      11 UNK        -0.1021 
     13 C13       -75.9912   29.5374  -71.3590 C.ar      11 UNK        -0.0753 
     14 C14       -77.1177   30.2673  -71.7522 C.ar      11 UNK        -0.0933 
     15 C15       -74.6174   30.1909  -71.5457 C.3       11 UNK         0.0166 
     16 S16       -73.1645   29.2011  -71.0507 S.3       11 UNK        -0.2615 
     17 C17       -73.0309   27.9909  -72.4114 C.3       11 UNK        -0.0865 
     18 CA        -71.6581   28.0714  -73.1304 C.3       10 UNK         0.0862 
     19 C         -71.3770   26.7918  -73.9758 C.2       10 UNK         0.5551 
     20 N         -71.1854   26.8711  -75.2878 N.am      10 UNK        -0.7319 
     21 O         -71.2959   25.7007  -73.4179 O.2       10 UNK        -0.5018 
     22 N         -71.4876   29.3393  -73.8616 N.am      10 UNK        -0.4509 
     23 C         -70.2981   29.8474  -74.2153 C.2       10 UNK         0.4899 
     24 O         -69.2202   29.3731  -73.8521 O.2       10 UNK        -0.4839 
     25 CA        -70.3165   31.0801  -75.1454 C.3       9 UNK         0.0222 
     26 CB        -68.9780   31.2878  -75.8861 C.3       9 UNK        -0.1966 
     27 N         -71.4349   31.0716  -76.0981 N.am      9 UNK        -0.4218 
     28 C         -71.7300   30.1211  -76.9975 C.2       9 UNK         0.5020 
     29 O         -71.0587   29.1037  -77.1788 O.2       9 UNK        -0.5274 
     30 CA        -73.0463   30.3086  -77.7705 C.3       8 UNK         0.0270 
     31 CB        -72.9190   29.8438  -79.2320 C.3       8 UNK        -0.1976 
     32 N         -74.1456   29.5800  -77.1343 N.am      8 UNK        -0.4313 
     33 C         -74.6257   29.7883  -75.9029 C.2       8 UNK         0.5041 
     34 O         -74.1885   30.6459  -75.1360 O.2       8 UNK        -0.5577 
     35 CA        -75.7741   28.8857  -75.4283 C.3       7 UNK         0.0284 
     36 CB        -77.1230   29.3353  -76.0184 C.3       7 UNK        -0.1958 
     37 N         -75.5487   27.4506  -75.6356 N.am      7 UNK        -0.4454 
     38 C         -75.4775   26.7377  -76.7680 C.2       7 UNK         0.5089 
     39 O         -75.5083   27.2381  -77.8929 O.2       7 UNK        -0.5125 
     40 CA        -75.3869   25.2023  -76.6326 C.3       6 UNK         0.0408 
     41 CB        -73.9346   24.7111  -76.7785 C.3       6 UNK        -0.1791 
     42 N         -76.0299   24.6595  -75.4237 N.am      6 UNK        -0.4762 
     43 C         -75.6668   24.8150  -74.1410 C.2       6 UNK         0.5007 
     44 O         -74.6565   25.4189  -73.7857 O.2       6 UNK        -0.5032 
     45 CA        -76.6544   24.3291  -73.0698 C.3       5 UNK         0.0783 
     46 C46       -77.7018   25.4382  -72.8116 C.3       11 UNK        -0.0857 
     47 S47       -78.5841   25.2225  -71.2316 S.3       11 UNK        -0.2512 
     48 C48       -77.6366   26.3100  -70.1057 C.3       11 UNK         0.0225 
     49 N         -77.2776   23.0607  -73.4495 N.am      5 UNK        -0.4615 
     50 C         -76.7040   21.8595  -73.3052 C.2       4 UNK         0.5053 
     51 O         -75.5977   21.6864  -72.7938 O.2       4 UNK        -0.5105 
     52 CA        -77.5010   20.6402  -73.8037 C.3       4 UNK         0.0263 
     53 CB        -78.3200   20.0316  -72.6538 C.3       4 UNK        -0.1981 
     54 N         -78.3984   20.9618  -74.9165 N.am      4 UNK        -0.4224 
     55 C         -77.9956   21.1961  -76.1739 C.2       3 UNK         0.4895 
     56 O         -76.8293   21.0910  -76.5532 O.2       3 UNK        -0.5091 
     57 CA        -79.0756   21.6531  -77.1721 C.3       3 UNK         0.0250 
     58 CB        -79.7146   20.4407  -77.8685 C.3       3 UNK        -0.1996 
     59 N         -80.1265   22.4815  -76.5658 N.am      3 UNK        -0.4254 
     60 C         -79.9136   23.6823  -76.0119 C.2       2 UNK         0.5004 
     61 O         -78.8020   24.2122  -75.9315 O.2       2 UNK        -0.5226 
     62 CA        -81.1231   24.3872  -75.3926 C.3       2 UNK         0.0269 
     63 CB        -81.3952   23.8479  -73.9743 C.3       2 UNK        -0.1926 
     64 N         -80.8368   25.8191  -75.3470 N.am      2 UNK        -0.4687 
     65 C         -81.7411   26.7916  -75.1961 C.2       1 UNK         0.5165 
     66 O         -82.9444   26.5810  -75.0179 O.2       1 UNK        -0.5079 
     67 H67       -84.0765   30.8029  -76.3557 H         1 UNK         0.0900 
     68 H68       -83.4337   30.9903  -77.9884 H         1 UNK         0.0900 
     69 H69       -84.6420   29.7471  -77.6519 H         1 UNK         0.0900 
     70 H70       -82.6554   29.7496  -74.9808 H         1 UNK         0.2959 
     71 H71       -80.3782   28.2723  -75.9359 H         1 UNK         0.1079 
     72 H72       -79.8684   27.9455  -73.5204 H         1 UNK         0.0837 
     73 H73       -81.4393   28.5718  -73.0721 H         1 UNK         0.0837 
     74 H74       -80.4973   30.2834  -71.4498 H         1 UNK         0.0685 
     75 H75       -79.4403   31.6139  -71.8444 H         1 UNK         0.0685 
     76 H76       -79.5626   28.0735  -70.8991 H         1 UNK         0.1434 
     77 H77       -75.3226   27.6673  -70.5079 H         1 UNK         0.1329 
     78 H78       -76.9929   31.2487  -72.1899 H         1 UNK         0.1335 
     79 H79       -74.4980   30.4955  -72.5845 H         1 UNK         0.0680 
     80 H80       -74.6003   31.1099  -70.9584 H         1 UNK         0.0680 
     81 H81       -73.8459   28.1234  -73.1233 H         1 UNK         0.1032 
     82 H82       -73.1797   27.0023  -71.9722 H         1 UNK         0.1032 
     83 H83       -70.8966   28.0530  -72.3480 H         1 UNK         0.0461 
     84 H84       -70.9801   26.0279  -75.7976 H         1 UNK         0.3453 
     85 H85       -71.1887   27.7598  -75.7777 H         1 UNK         0.3453 
     86 H86       -72.3300   29.7885  -74.1993 H         1 UNK         0.2984 
     87 H87       -70.4739   31.9438  -74.4979 H         1 UNK         0.0554 
     88 H88       -68.1566   31.4265  -75.1820 H         1 UNK         0.0847 
     89 H89       -69.0088   32.1724  -76.5221 H         1 UNK         0.0847 
     90 H90       -68.7270   30.4320  -76.5137 H         1 UNK         0.0847 
     91 H91       -72.1136   31.8118  -75.9731 H         1 UNK         0.3141 
     92 H92       -73.3006   31.3705  -77.7756 H         1 UNK         0.0743 
     93 H93       -72.0967   30.3555  -79.7340 H         1 UNK         0.0784 
     94 H94       -73.8269   30.0576  -79.7963 H         1 UNK         0.0784 
     95 H95       -72.7277   28.7719  -79.3009 H         1 UNK         0.0784 
     96 H96       -74.5579   28.8107  -77.6586 H         1 UNK         0.3213 
     97 H97       -75.8437   29.0145  -74.3471 H         1 UNK         0.0855 
     98 H98       -77.1471   29.2511  -77.1052 H         1 UNK         0.0814 
     99 H99       -77.3277   30.3772  -75.7681 H         1 UNK         0.0814 
    100 H100      -77.9425   28.7407  -75.6168 H         1 UNK         0.0814 
    101 H101      -75.3899   26.9129  -74.7896 H         1 UNK         0.3105 
    102 H102      -75.9556   24.7901  -77.4676 H         1 UNK         0.0547 
    103 H103      -73.8832   23.6225  -76.7660 H         1 UNK         0.0837 
    104 H104      -73.2929   25.0856  -75.9818 H         1 UNK         0.0837 
    105 H105      -73.5042   25.0463  -77.7230 H         1 UNK         0.0837 
    106 H106      -76.9478   24.2528  -75.5932 H         1 UNK         0.3020 
    107 H107      -76.0751   24.1788  -72.1553 H         1 UNK         0.1245 
    108 H108      -78.4444   25.4594  -73.6092 H         1 UNK         0.0781 
    109 H109      -77.2425   26.4265  -72.8364 H         1 UNK         0.0781 
    110 H110      -76.6688   25.8455  -69.9107 H         1 UNK         0.0836 
    111 H111      -78.1514   26.3596  -69.1454 H         1 UNK         0.0836 
    112 H112      -78.1723   23.1216  -73.9110 H         1 UNK         0.3022 
    113 H113      -76.7821   19.8919  -74.1449 H         1 UNK         0.0747 
    114 H114      -78.8395   19.1272  -72.9714 H         1 UNK         0.0793 
    115 H115      -77.6738   19.7555  -71.8192 H         1 UNK         0.0793 
    116 H116      -79.0643   20.7314  -72.2712 H         1 UNK         0.0793 
    117 H117      -79.3814   21.0468  -74.7036 H         1 UNK         0.3047 
    118 H118      -78.5767   22.2586  -77.9323 H         1 UNK         0.0822 
    119 H119      -80.4117   20.7516  -78.6470 H         1 UNK         0.0807 
    120 H120      -80.2562   19.8074  -77.1648 H         1 UNK         0.0807 
    121 H121      -78.9548   19.8206  -78.3466 H         1 UNK         0.0807 
    122 H122      -81.0654   22.1086  -76.5856 H         1 UNK         0.2946 
    123 H123      -81.9938   24.2173  -76.0303 H         1 UNK         0.1144 
    124 H124      -82.2652   24.3264  -73.5249 H         1 UNK         0.0793 
    125 H125      -80.5472   24.0126  -73.3092 H         1 UNK         0.0793 
    126 H126      -81.5953   22.7760  -73.9907 H         1 UNK         0.0793 
    127 H127      -79.8645   26.0427  -75.5222 H         1 UNK         0.2896 
@<TRIPOS>BOND
     1    1    2 1    
     2    1   67 1    
     3    1   68 1    
     4    1   69 1    
     5    2    3 2    
     6    2    4 am   BACKBONE|DICT|INTERRES
     7    4    5 1    
     8    4   70 1    
     9    5    6 1    
    10    5   65 1    
    11    5   71 1    
    12    6    7 1    
    13    6   72 1    
    14    6   73 1    
    15    7    8 1    
    16    8    9 1    
    17    8   74 1    
    18    8   75 1    
    19    9   10 ar   
    20    9   14 ar   
    21   10   11 ar   
    22   10   76 1    
    23   11   12 ar   
    24   11   48 1    
    25   12   13 ar   
    26   12   77 1    
    27   13   14 ar   
    28   13   15 1    
    29   14   78 1    
    30   15   16 1    
    31   15   79 1    
    32   15   80 1    
    33   16   17 1    
    34   17   18 1    
    35   17   81 1    
    36   17   82 1    
    37   18   19 1    
    38   18   22 1    
    39   18   83 1    
    40   19   20 am   BACKBONE|DICT|INTERRES
    41   19   21 2    
    42   20   84 1    
    43   20   85 1    
    44   22   23 am   BACKBONE|DICT|INTERRES
    45   22   86 1    
    46   23   24 2    
    47   23   25 1    
    48   25   26 1    
    49   25   27 1    
    50   25   87 1    
    51   26   88 1    
    52   26   89 1    
    53   26   90 1    
    54   27   28 am   BACKBONE|DICT|INTERRES
    55   27   91 1    
    56   28   29 2    
    57   28   30 1    
    58   30   31 1    
    59   30   32 1    
    60   30   92 1    
    61   31   93 1    
    62   31   94 1    
    63   31   95 1    
    64   32   33 am   BACKBONE|DICT|INTERRES
    65   32   96 1    
    66   33   34 2    
    67   33   35 1    
    68   35   36 1    
    69   35   37 1    
    70   35   97 1    
    71   36   98 1    
    72   36   99 1    
    73   36  100 1    
    74   37   38 am   BACKBONE|DICT|INTERRES
    75   37  101 1    
    76   38   39 2    
    77   38   40 1    
    78   40   41 1    
    79   40   42 1    
    80   40  102 1    
    81   41  103 1    
    82   41  104 1    
    83   41  105 1    
    84   42   43 am   BACKBONE|DICT|INTERRES
    85   42  106 1    
    86   43   44 2    
    87   43   45 1    
    88   45   46 1    
    89   45   49 1    
    90   45  107 1    
    91   46   47 1    
    92   46  108 1    
    93   46  109 1    
    94   47   48 1    
    95   48  110 1    
    96   48  111 1    
    97   49   50 am   BACKBONE|DICT|INTERRES
    98   49  112 1    
    99   50   51 2    
   100   50   52 1    
   101   52   53 1    
   102   52   54 1    
   103   52  113 1    
   104   53  114 1    
   105   53  115 1    
   106   53  116 1    
   107   54   55 am   BACKBONE|DICT|INTERRES
   108   54  117 1    
   109   55   56 2    
   110   55   57 1    
   111   57   58 1    
   112   57   59 1    
   113   57  118 1    
   114   58  119 1    
   115   58  120 1    
   116   58  121 1    
   117   59   60 am   BACKBONE|DICT|INTERRES
   118   59  122 1    
   119   60   61 2    
   120   60   62 1    
   121   62   63 1    
   122   62   64 1    
   123   62  123 1    
   124   63  124 1    
   125   63  125 1    
   126   63  126 1    
   127   64   65 am   BACKBONE|DICT|INTERRES
   128   64  127 1    
   129   65   66 2    
@<TRIPOS>SUBSTRUCTURE
     1 UNK         1 GROUP             0       ****    0 ROOT    
