@<TRIPOS>MOLECULE
3R135
127   129    1
SMALL
USER_CHARGES


@<TRIPOS>ATOM
      1 CA        -85.5557   28.9373  -75.8221 C.3       0 UNK        -0.1998 
      2 C         -84.1122   29.1408  -76.2522 C.2       0 UNK         0.4909 
      3 O         -83.8626   29.5245  -77.3946 O.2       0 UNK        -0.5240 
      4 N         -83.1588   28.8866  -75.3460 N.am      1 UNK        -0.4739 
      5 CA        -81.7148   29.0021  -75.5905 C.3       1 UNK         0.0864 
      6 C6        -80.9235   29.1404  -74.2656 C.3       11 UNK        -0.0881 
      7 S7        -81.1685   27.7473  -73.1085 S.3       11 UNK        -0.2682 
      8 C8        -80.6403   28.4938  -71.5343 C.3       11 UNK         0.0289 
      9 C9        -79.1668   28.2411  -71.2472 C.ar      11 UNK        -0.0687 
     10 C10       -78.7825   27.0538  -70.6197 C.ar      11 UNK        -0.0823 
     11 C11       -77.4448   26.8233  -70.2914 C.ar      11 UNK        -0.0830 
     12 C12       -76.4834   27.7864  -70.6058 C.ar      11 UNK        -0.1021 
     13 C13       -76.8462   28.9749  -71.2527 C.ar      11 UNK        -0.0753 
     14 C14       -78.1942   29.1961  -71.5656 C.ar      11 UNK        -0.0933 
     15 C15       -75.8094   30.0541  -71.5642 C.3       11 UNK         0.0166 
     16 S16       -74.1931   29.3925  -72.0987 S.3       11 UNK        -0.2615 
     17 C17       -73.2274   30.9321  -72.2566 C.3       11 UNK        -0.0865 
     18 CA        -71.9341   30.7795  -73.1025 C.3       10 UNK         0.0862 
     19 C         -70.8072   29.9919  -72.3676 C.2       10 UNK         0.5551 
     20 N         -70.1464   29.0264  -72.9958 N.am      10 UNK        -0.7319 
     21 O         -70.5096   30.2787  -71.2103 O.2       10 UNK        -0.5018 
     22 N         -72.2332   30.2979  -74.4603 N.am      10 UNK        -0.4509 
     23 C         -71.5490   30.6264  -75.5614 C.2       10 UNK         0.4899 
     24 O         -70.6054   31.4184  -75.5750 O.2       10 UNK        -0.4839 
     25 CA        -72.0061   29.9361  -76.8575 C.3       9 UNK         0.0222 
     26 CB        -71.1694   30.3383  -78.0914 C.3       9 UNK        -0.1966 
     27 N         -72.0726   28.4764  -76.7186 N.am      9 UNK        -0.4218 
     28 C         -71.0593   27.6279  -76.4730 C.2       9 UNK         0.5020 
     29 O         -69.9016   27.9949  -76.2683 O.2       9 UNK        -0.5274 
     30 CA        -71.3657   26.1143  -76.4353 C.3       8 UNK         0.0270 
     31 CB        -70.9234   25.4957  -75.0978 C.3       8 UNK        -0.1976 
     32 N         -72.7765   25.7971  -76.6721 N.am      8 UNK        -0.4313 
     33 C         -73.3713   25.7901  -77.8743 C.2       8 UNK         0.5041 
     34 O         -72.7599   25.9306  -78.9339 O.2       8 UNK        -0.5577 
     35 CA        -74.9069   25.6540  -77.9127 C.3       7 UNK         0.0284 
     36 CB        -75.3188   24.2500  -78.3828 C.3       7 UNK        -0.1958 
     37 N         -75.5736   25.9540  -76.6414 N.am      7 UNK        -0.4454 
     38 C         -75.5430   27.1312  -76.0010 C.2       7 UNK         0.5089 
     39 O         -74.9530   28.1259  -76.4233 O.2       7 UNK        -0.5125 
     40 CA        -76.2296   27.1817  -74.6287 C.3       6 UNK         0.0408 
     41 CB        -77.7265   27.4602  -74.7892 C.3       6 UNK        -0.1791 
     42 N         -76.0243   25.9539  -73.8546 N.am      6 UNK        -0.4762 
     43 C         -74.8404   25.5693  -73.3553 C.2       6 UNK         0.5007 
     44 O         -73.8089   26.2273  -73.4776 O.2       6 UNK        -0.5032 
     45 CA        -74.7687   24.1928  -72.6650 C.3       5 UNK         0.0783 
     46 C46       -75.0672   24.2684  -71.1442 C.3       11 UNK        -0.0857 
     47 S47       -76.8406   24.1563  -70.7077 S.3       11 UNK        -0.2512 
     48 C48       -77.0551   25.5493  -69.5602 C.3       11 UNK         0.0225 
     49 N         -75.5897   23.1919  -73.3492 N.am      5 UNK        -0.4615 
     50 C         -75.3272   22.6731  -74.5542 C.2       4 UNK         0.5053 
     51 O         -74.2955   22.8981  -75.1855 O.2       4 UNK        -0.5105 
     52 CA        -76.4217   21.7818  -75.1702 C.3       4 UNK         0.0263 
     53 CB        -76.2163   20.3150  -74.7606 C.3       4 UNK        -0.1981 
     54 N         -77.7850   22.2053  -74.8188 N.am      4 UNK        -0.4224 
     55 C         -78.3192   23.3853  -75.1641 C.2       3 UNK         0.4895 
     56 O         -77.7114   24.2380  -75.8129 O.2       3 UNK        -0.5091 
     57 CA        -79.7355   23.6848  -74.6388 C.3       3 UNK         0.0250 
     58 CB        -79.6677   24.2196  -73.1984 C.3       3 UNK        -0.1996 
     59 N         -80.4551   24.6594  -75.4645 N.am      3 UNK        -0.4254 
     60 C         -80.8323   24.4636  -76.7359 C.2       2 UNK         0.5004 
     61 O         -80.6406   23.4096  -77.3451 O.2       2 UNK        -0.5226 
     62 CA        -81.5784   25.6088  -77.4476 C.3       2 UNK         0.0269 
     63 CB        -82.9037   25.1090  -78.0507 C.3       2 UNK        -0.1926 
     64 N         -81.8759   26.7458  -76.5704 N.am      2 UNK        -0.4687 
     65 C         -81.1595   27.8760  -76.4932 C.2       1 UNK         0.5165 
     66 O         -80.1118   28.0596  -77.1119 O.2       1 UNK        -0.5079 
     67 H67       -86.1069   29.8722  -75.9085 H         1 UNK         0.0900 
     68 H68       -85.6288   28.5945  -74.7902 H         1 UNK         0.0900 
     69 H69       -86.0371   28.1979  -76.4612 H         1 UNK         0.0900 
     70 H70       -83.4143   28.5762  -74.4189 H         1 UNK         0.2959 
     71 H71       -81.5571   29.9265  -76.1507 H         1 UNK         0.1079 
     72 H72       -79.8599   29.2715  -74.4577 H         1 UNK         0.0837 
     73 H73       -81.2380   30.0596  -73.7696 H         1 UNK         0.0837 
     74 H74       -80.8564   29.5629  -71.5244 H         1 UNK         0.0685 
     75 H75       -81.2422   28.0637  -70.7324 H         1 UNK         0.0685 
     76 H76       -79.5303   26.3126  -70.3719 H         1 UNK         0.1434 
     77 H77       -75.4510   27.6117  -70.3372 H         1 UNK         0.1329 
     78 H78       -78.4913   30.1186  -72.0452 H         1 UNK         0.1335 
     79 H79       -75.6665   30.6665  -70.6708 H         1 UNK         0.0680 
     80 H80       -76.1842   30.7186  -72.3465 H         1 UNK         0.0680 
     81 H81       -73.8624   31.6913  -72.7159 H         1 UNK         0.1032 
     82 H82       -72.9974   31.3092  -71.2581 H         1 UNK         0.1032 
     83 H83       -71.5300   31.7887  -73.2021 H         1 UNK         0.0461 
     84 H84       -69.4153   28.5329  -72.5092 H         1 UNK         0.3453 
     85 H85       -70.3435   28.8153  -73.9623 H         1 UNK         0.3453 
     86 H86       -72.9759   29.6157  -74.5262 H         1 UNK         0.2984 
     87 H87       -73.0293   30.2697  -77.0367 H         1 UNK         0.0554 
     88 H88       -71.5397   29.8560  -78.9958 H         1 UNK         0.0847 
     89 H89       -70.1183   30.0722  -77.9760 H         1 UNK         0.0847 
     90 H90       -71.2138   31.4153  -78.2575 H         1 UNK         0.0847 
     91 H91       -73.0097   28.0909  -76.7935 H         1 UNK         0.3141 
     92 H92       -70.7750   25.6500  -77.2276 H         1 UNK         0.0743 
     93 H93       -69.8413   25.5610  -74.9796 H         1 UNK         0.0784 
     94 H94       -71.3684   26.0098  -74.2462 H         1 UNK         0.0784 
     95 H95       -71.1922   24.4411  -75.0349 H         1 UNK         0.0784 
     96 H96       -73.3541   25.6708  -75.8510 H         1 UNK         0.3213 
     97 H97       -75.2723   26.3773  -78.6445 H         1 UNK         0.0855 
     98 H98       -76.4026   24.1557  -78.4550 H         1 UNK         0.0814 
     99 H99       -74.9590   23.4768  -77.7047 H         1 UNK         0.0814 
    100 H100      -74.9076   24.0333  -79.3695 H         1 UNK         0.0814 
    101 H101      -76.1561   25.2190  -76.2451 H         1 UNK         0.3105 
    102 H102      -75.7960   28.0094  -74.0673 H         1 UNK         0.0547 
    103 H103      -78.2271   27.4910  -73.8239 H         1 UNK         0.0837 
    104 H104      -77.8791   28.4240  -75.2751 H         1 UNK         0.0837 
    105 H105      -78.2258   26.7113  -75.4023 H         1 UNK         0.0837 
    106 H106      -76.8168   25.3378  -73.7546 H         1 UNK         0.3020 
    107 H107      -73.7284   23.8729  -72.7665 H         1 UNK         0.1245 
    108 H108      -74.6218   25.1631  -70.7047 H         1 UNK         0.0781 
    109 H109      -74.5728   23.4317  -70.6485 H         1 UNK         0.0781 
    110 H110      -77.8374   25.2904  -68.8451 H         1 UNK         0.0836 
    111 H111      -76.1505   25.6976  -68.9684 H         1 UNK         0.0836 
    112 H112      -76.4513   22.9436  -72.8852 H         1 UNK         0.3022 
    113 H113      -76.3245   21.8496  -76.2558 H         1 UNK         0.0747 
    114 H114      -75.2173   19.9714  -75.0328 H         1 UNK         0.0793 
    115 H115      -76.9291   19.6593  -75.2610 H         1 UNK         0.0793 
    116 H116      -76.3271   20.1749  -73.6846 H         1 UNK         0.0793 
    117 H117      -78.3381   21.5554  -74.2781 H         1 UNK         0.3047 
    118 H118      -80.3090   22.7556  -74.6447 H         1 UNK         0.0822 
    119 H119      -79.2033   23.4941  -72.5300 H         1 UNK         0.0807 
    120 H120      -80.6629   24.4241  -72.8032 H         1 UNK         0.0807 
    121 H121      -79.0900   25.1425  -73.1328 H         1 UNK         0.0807 
    122 H122      -80.6428   25.5598  -75.0489 H         1 UNK         0.2946 
    123 H123      -80.9362   25.9357  -78.2685 H         1 UNK         0.1144 
    124 H124      -83.4211   25.9060  -78.5854 H         1 UNK         0.0793 
    125 H125      -83.5776   24.7276  -77.2830 H         1 UNK         0.0793 
    126 H126      -82.7329   24.3027  -78.7652 H         1 UNK         0.0793 
    127 H127      -82.7169   26.6831  -76.0151 H         1 UNK         0.2896 
@<TRIPOS>BOND
     1    1    2 1    
     2    1   67 1    
     3    1   68 1    
     4    1   69 1    
     5    2    3 2    
     6    2    4 am   BACKBONE|DICT|INTERRES
     7    4    5 1    
     8    4   70 1    
     9    5    6 1    
    10    5   65 1    
    11    5   71 1    
    12    6    7 1    
    13    6   72 1    
    14    6   73 1    
    15    7    8 1    
    16    8    9 1    
    17    8   74 1    
    18    8   75 1    
    19    9   10 ar   
    20    9   14 ar   
    21   10   11 ar   
    22   10   76 1    
    23   11   12 ar   
    24   11   48 1    
    25   12   13 ar   
    26   12   77 1    
    27   13   14 ar   
    28   13   15 1    
    29   14   78 1    
    30   15   16 1    
    31   15   79 1    
    32   15   80 1    
    33   16   17 1    
    34   17   18 1    
    35   17   81 1    
    36   17   82 1    
    37   18   19 1    
    38   18   22 1    
    39   18   83 1    
    40   19   20 am   BACKBONE|DICT|INTERRES
    41   19   21 2    
    42   20   84 1    
    43   20   85 1    
    44   22   23 am   BACKBONE|DICT|INTERRES
    45   22   86 1    
    46   23   24 2    
    47   23   25 1    
    48   25   26 1    
    49   25   27 1    
    50   25   87 1    
    51   26   88 1    
    52   26   89 1    
    53   26   90 1    
    54   27   28 am   BACKBONE|DICT|INTERRES
    55   27   91 1    
    56   28   29 2    
    57   28   30 1    
    58   30   31 1    
    59   30   32 1    
    60   30   92 1    
    61   31   93 1    
    62   31   94 1    
    63   31   95 1    
    64   32   33 am   BACKBONE|DICT|INTERRES
    65   32   96 1    
    66   33   34 2    
    67   33   35 1    
    68   35   36 1    
    69   35   37 1    
    70   35   97 1    
    71   36   98 1    
    72   36   99 1    
    73   36  100 1    
    74   37   38 am   BACKBONE|DICT|INTERRES
    75   37  101 1    
    76   38   39 2    
    77   38   40 1    
    78   40   41 1    
    79   40   42 1    
    80   40  102 1    
    81   41  103 1    
    82   41  104 1    
    83   41  105 1    
    84   42   43 am   BACKBONE|DICT|INTERRES
    85   42  106 1    
    86   43   44 2    
    87   43   45 1    
    88   45   46 1    
    89   45   49 1    
    90   45  107 1    
    91   46   47 1    
    92   46  108 1    
    93   46  109 1    
    94   47   48 1    
    95   48  110 1    
    96   48  111 1    
    97   49   50 am   BACKBONE|DICT|INTERRES
    98   49  112 1    
    99   50   51 2    
   100   50   52 1    
   101   52   53 1    
   102   52   54 1    
   103   52  113 1    
   104   53  114 1    
   105   53  115 1    
   106   53  116 1    
   107   54   55 am   BACKBONE|DICT|INTERRES
   108   54  117 1    
   109   55   56 2    
   110   55   57 1    
   111   57   58 1    
   112   57   59 1    
   113   57  118 1    
   114   58  119 1    
   115   58  120 1    
   116   58  121 1    
   117   59   60 am   BACKBONE|DICT|INTERRES
   118   59  122 1    
   119   60   61 2    
   120   60   62 1    
   121   62   63 1    
   122   62   64 1    
   123   62  123 1    
   124   63  124 1    
   125   63  125 1    
   126   63  126 1    
   127   64   65 am   BACKBONE|DICT|INTERRES
   128   64  127 1    
   129   65   66 2    
@<TRIPOS>SUBSTRUCTURE
     1 UNK         1 GROUP             0       ****    0 ROOT    
