@<TRIPOS>MOLECULE
3R135
127   129    1
SMALL
USER_CHARGES


@<TRIPOS>ATOM
      1 CA        -79.4451   29.2232  -75.0309 C.3       0 UNK        -0.1998 
      2 C         -80.6040   30.0083  -74.4178 C.2       0 UNK         0.4909 
      3 O         -80.9361   31.0831  -74.9148 O.2       0 UNK        -0.5240 
      4 N         -81.2401   29.5304  -73.3377 N.am      1 UNK        -0.4739 
      5 CA        -81.0272   28.2239  -72.7030 C.3       1 UNK         0.0864 
      6 C6        -81.6141   28.1757  -71.2655 C.3       11 UNK        -0.0881 
      7 S7        -80.9380   29.3015  -69.9795 S.3       11 UNK        -0.2682 
      8 C8        -79.3890   30.0541  -70.6042 C.3       11 UNK         0.0289 
      9 C9        -78.1295   29.1941  -70.4872 C.ar      11 UNK        -0.0687 
     10 C10       -78.1650   27.7978  -70.5622 C.ar      11 UNK        -0.0823 
     11 C11       -76.9852   27.0495  -70.5760 C.ar      11 UNK        -0.0830 
     12 C12       -75.7568   27.6996  -70.4397 C.ar      11 UNK        -0.1021 
     13 C13       -75.7028   29.0900  -70.3242 C.ar      11 UNK        -0.0753 
     14 C14       -76.8894   29.8299  -70.3592 C.ar      11 UNK        -0.0933 
     15 C15       -74.3590   29.7874  -70.1672 C.3       11 UNK         0.0166 
     16 S16       -73.4085   29.8097  -71.7207 S.3       11 UNK        -0.2615 
     17 C17       -74.4371   30.8953  -72.7686 C.3       11 UNK        -0.0865 
     18 CA        -75.0464   30.1412  -73.9877 C.3       10 UNK         0.0862 
     19 C         -76.1658   30.9627  -74.6979 C.2       10 UNK         0.5551 
     20 N         -76.3118   30.8823  -76.0151 N.am      10 UNK        -0.7319 
     21 O         -76.9395   31.6569  -74.0439 O.2       10 UNK        -0.5018 
     22 N         -74.0221   29.5849  -74.8936 N.am      10 UNK        -0.4509 
     23 C         -73.1056   30.2853  -75.5810 C.2       10 UNK         0.4899 
     24 O         -73.0163   31.5140  -75.5499 O.2       10 UNK        -0.4839 
     25 CA        -72.1432   29.4799  -76.4780 C.3       9 UNK         0.0222 
     26 CB        -70.8529   30.2503  -76.8316 C.3       9 UNK        -0.1966 
     27 N         -71.8405   28.1474  -75.9458 N.am      9 UNK        -0.4218 
     28 C         -71.2005   27.8381  -74.8059 C.2       9 UNK         0.5020 
     29 O         -70.6562   28.6671  -74.0759 O.2       9 UNK        -0.5274 
     30 CA        -71.1750   26.3533  -74.3906 C.3       8 UNK         0.0270 
     31 CB        -71.9059   26.1572  -73.0492 C.3       8 UNK        -0.1976 
     32 N         -71.7944   25.4838  -75.3949 N.am      8 UNK        -0.4313 
     33 C         -71.1458   24.8896  -76.4065 C.2       8 UNK         0.5041 
     34 O         -69.9239   24.9271  -76.5520 O.2       8 UNK        -0.5577 
     35 CA        -72.0051   24.1514  -77.4516 C.3       7 UNK         0.0284 
     36 CB        -72.0838   22.6524  -77.1218 C.3       7 UNK        -0.1958 
     37 N         -73.3616   24.6978  -77.5751 N.am      7 UNK        -0.4454 
     38 C         -73.6469   25.9108  -78.0765 C.2       7 UNK         0.5089 
     39 O         -72.7967   26.6719  -78.5353 O.2       7 UNK        -0.5125 
     40 CA        -75.1067   26.3950  -77.9853 C.3       6 UNK         0.0408 
     41 CB        -75.8607   26.0788  -79.2851 C.3       6 UNK        -0.1791 
     42 N         -75.8333   25.8261  -76.8478 N.am      6 UNK        -0.4762 
     43 C         -75.4929   25.9881  -75.5595 C.2       6 UNK         0.5007 
     44 O         -74.5797   26.7299  -75.1949 O.2       6 UNK        -0.5032 
     45 CA        -76.2398   25.1435  -74.5079 C.3       5 UNK         0.0783 
     46 C46       -77.1140   26.0426  -73.6058 C.3       11 UNK        -0.0857 
     47 S47       -77.9746   25.0989  -72.2965 S.3       11 UNK        -0.2512 
     48 C48       -77.0341   25.5439  -70.7966 C.3       11 UNK         0.0225 
     49 N         -76.9956   24.0359  -75.1065 N.am      5 UNK        -0.4615 
     50 C         -76.4407   22.9391  -75.6430 C.2       4 UNK         0.5053 
     51 O         -75.2237   22.7744  -75.7287 O.2       4 UNK        -0.5105 
     52 CA        -77.3841   21.8560  -76.1977 C.3       4 UNK         0.0263 
     53 CB        -77.5736   20.7374  -75.1611 C.3       4 UNK        -0.1981 
     54 N         -78.6974   22.3691  -76.5950 N.am      4 UNK        -0.4224 
     55 C         -78.9189   23.1900  -77.6322 C.2       3 UNK         0.4895 
     56 O         -78.0402   23.5628  -78.4092 O.2       3 UNK        -0.5091 
     57 CA        -80.3558   23.7209  -77.8008 C.3       3 UNK         0.0250 
     58 CB        -81.1681   22.7945  -78.7199 C.3       3 UNK        -0.1996 
     59 N         -81.0721   23.9051  -76.5302 N.am      3 UNK        -0.4254 
     60 C         -80.6706   24.7282  -75.5513 C.2       2 UNK         0.5004 
     61 O         -79.6508   25.4167  -75.6239 O.2       2 UNK        -0.5226 
     62 CA        -81.5050   24.7318  -74.2600 C.3       2 UNK         0.0269 
     63 CB        -81.2662   23.4377  -73.4620 C.3       2 UNK        -0.1926 
     64 N         -81.1411   25.8766  -73.4205 N.am      2 UNK        -0.4687 
     65 C         -81.6560   27.1040  -73.5641 C.2       1 UNK         0.5165 
     66 O         -82.5955   27.3609  -74.3225 O.2       1 UNK        -0.5079 
     67 H67       -78.6490   29.0719  -74.3024 H         1 UNK         0.0900 
     68 H68       -79.0206   29.7707  -75.8721 H         1 UNK         0.0900 
     69 H69       -79.7730   28.2541  -75.4059 H         1 UNK         0.0900 
     70 H70       -82.0115   30.0638  -72.9631 H         1 UNK         0.2959 
     71 H71       -79.9556   28.0327  -72.6537 H         1 UNK         0.1079 
     72 H72       -81.5144   27.1665  -70.8596 H         1 UNK         0.0837 
     73 H73       -82.6906   28.3569  -71.3057 H         1 UNK         0.0837 
     74 H74       -79.4998   30.3913  -71.6320 H         1 UNK         0.0685 
     75 H75       -79.2382   30.9634  -70.0206 H         1 UNK         0.0685 
     76 H76       -79.1051   27.2777  -70.6540 H         1 UNK         0.1434 
     77 H77       -74.8372   27.1301  -70.4448 H         1 UNK         0.1329 
     78 H78       -76.8467   30.9087  -70.2967 H         1 UNK         0.1335 
     79 H79       -73.7732   29.2699  -69.4062 H         1 UNK         0.0680 
     80 H80       -74.4892   30.8092  -69.8073 H         1 UNK         0.0680 
     81 H81       -75.2232   31.3328  -72.1529 H         1 UNK         0.1032 
     82 H82       -73.8297   31.7395  -73.0965 H         1 UNK         0.1032 
     83 H83       -75.5716   29.2708  -73.5917 H         1 UNK         0.0461 
     84 H84       -77.0376   31.4170  -76.4648 H         1 UNK         0.3453 
     85 H85       -75.6877   30.3136  -76.5625 H         1 UNK         0.3453 
     86 H86       -74.0448   28.5742  -74.9974 H         1 UNK         0.2984 
     87 H87       -72.6828   29.3085  -77.4102 H         1 UNK         0.0554 
     88 H88       -70.1973   29.6553  -77.4673 H         1 UNK         0.0847 
     89 H89       -70.2918   30.5342  -75.9410 H         1 UNK         0.0847 
     90 H90       -71.0821   31.1681  -77.3743 H         1 UNK         0.0847 
     91 H91       -72.2192   27.3819  -76.4877 H         1 UNK         0.3141 
     92 H92       -70.1296   26.0691  -74.2534 H         1 UNK         0.0743 
     93 H93       -71.8930   25.1128  -72.7373 H         1 UNK         0.0784 
     94 H94       -71.4288   26.7366  -72.2574 H         1 UNK         0.0784 
     95 H95       -72.9459   26.4816  -73.1003 H         1 UNK         0.0784 
     96 H96       -72.8044   25.4299  -75.3673 H         1 UNK         0.3213 
     97 H97       -71.5102   24.2617  -78.4193 H         1 UNK         0.0855 
     98 H98       -72.5521   22.4752  -76.1527 H         1 UNK         0.0814 
     99 H99       -71.0877   22.2091  -77.0866 H         1 UNK         0.0814 
    100 H100      -72.6537   22.1078  -77.8747 H         1 UNK         0.0814 
    101 H101      -74.1146   24.1359  -77.1955 H         1 UNK         0.3105 
    102 H102      -75.0878   27.4791  -77.8551 H         1 UNK         0.0547 
    103 H103      -75.3671   26.5363  -80.1436 H         1 UNK         0.0837 
    104 H104      -75.9108   25.0053  -79.4718 H         1 UNK         0.0837 
    105 H105      -76.8814   26.4609  -79.2566 H         1 UNK         0.0837 
    106 H106      -76.5988   25.2006  -77.0642 H         1 UNK         0.3020 
    107 H107      -75.4663   24.7025  -73.8745 H         1 UNK         0.1245 
    108 H108      -77.8663   26.5660  -74.1964 H         1 UNK         0.0781 
    109 H109      -76.5018   26.8257  -73.1569 H         1 UNK         0.0781 
    110 H110      -76.0287   25.1276  -70.8781 H         1 UNK         0.0836 
    111 H111      -77.4975   25.0700  -69.9305 H         1 UNK         0.0836 
    112 H112      -78.0015   24.1524  -75.1223 H         1 UNK         0.3022 
    113 H113      -76.9066   21.4283  -77.0820 H         1 UNK         0.0747 
    114 H114      -78.1745   19.9210  -75.5624 H         1 UNK         0.0793 
    115 H115      -76.6127   20.3139  -74.8642 H         1 UNK         0.0793 
    116 H116      -78.0618   21.1028  -74.2565 H         1 UNK         0.0793 
    117 H117      -79.4820   22.1111  -76.0151 H         1 UNK         0.3047 
    118 H118      -80.2824   24.6996  -78.2805 H         1 UNK         0.0822 
    119 H119      -81.3042   21.8053  -78.2809 H         1 UNK         0.0807 
    120 H120      -80.6660   22.6589  -79.6791 H         1 UNK         0.0807 
    121 H121      -82.1546   23.2085  -78.9299 H         1 UNK         0.0807 
    122 H122      -81.9155   23.3637  -76.4023 H         1 UNK         0.2946 
    123 H123      -82.5626   24.7934  -74.5283 H         1 UNK         0.1144 
    124 H124      -80.2109   23.2909  -73.2286 H         1 UNK         0.0793 
    125 H125      -81.6002   22.5617  -74.0191 H         1 UNK         0.0793 
    126 H126      -81.8173   23.4461  -72.5212 H         1 UNK         0.0793 
    127 H127      -80.3376   25.7407  -72.8214 H         1 UNK         0.2896 
@<TRIPOS>BOND
     1    1    2 1    
     2    1   67 1    
     3    1   68 1    
     4    1   69 1    
     5    2    3 2    
     6    2    4 am   BACKBONE|DICT|INTERRES
     7    4    5 1    
     8    4   70 1    
     9    5    6 1    
    10    5   65 1    
    11    5   71 1    
    12    6    7 1    
    13    6   72 1    
    14    6   73 1    
    15    7    8 1    
    16    8    9 1    
    17    8   74 1    
    18    8   75 1    
    19    9   10 ar   
    20    9   14 ar   
    21   10   11 ar   
    22   10   76 1    
    23   11   12 ar   
    24   11   48 1    
    25   12   13 ar   
    26   12   77 1    
    27   13   14 ar   
    28   13   15 1    
    29   14   78 1    
    30   15   16 1    
    31   15   79 1    
    32   15   80 1    
    33   16   17 1    
    34   17   18 1    
    35   17   81 1    
    36   17   82 1    
    37   18   19 1    
    38   18   22 1    
    39   18   83 1    
    40   19   20 am   BACKBONE|DICT|INTERRES
    41   19   21 2    
    42   20   84 1    
    43   20   85 1    
    44   22   23 am   BACKBONE|DICT|INTERRES
    45   22   86 1    
    46   23   24 2    
    47   23   25 1    
    48   25   26 1    
    49   25   27 1    
    50   25   87 1    
    51   26   88 1    
    52   26   89 1    
    53   26   90 1    
    54   27   28 am   BACKBONE|DICT|INTERRES
    55   27   91 1    
    56   28   29 2    
    57   28   30 1    
    58   30   31 1    
    59   30   32 1    
    60   30   92 1    
    61   31   93 1    
    62   31   94 1    
    63   31   95 1    
    64   32   33 am   BACKBONE|DICT|INTERRES
    65   32   96 1    
    66   33   34 2    
    67   33   35 1    
    68   35   36 1    
    69   35   37 1    
    70   35   97 1    
    71   36   98 1    
    72   36   99 1    
    73   36  100 1    
    74   37   38 am   BACKBONE|DICT|INTERRES
    75   37  101 1    
    76   38   39 2    
    77   38   40 1    
    78   40   41 1    
    79   40   42 1    
    80   40  102 1    
    81   41  103 1    
    82   41  104 1    
    83   41  105 1    
    84   42   43 am   BACKBONE|DICT|INTERRES
    85   42  106 1    
    86   43   44 2    
    87   43   45 1    
    88   45   46 1    
    89   45   49 1    
    90   45  107 1    
    91   46   47 1    
    92   46  108 1    
    93   46  109 1    
    94   47   48 1    
    95   48  110 1    
    96   48  111 1    
    97   49   50 am   BACKBONE|DICT|INTERRES
    98   49  112 1    
    99   50   51 2    
   100   50   52 1    
   101   52   53 1    
   102   52   54 1    
   103   52  113 1    
   104   53  114 1    
   105   53  115 1    
   106   53  116 1    
   107   54   55 am   BACKBONE|DICT|INTERRES
   108   54  117 1    
   109   55   56 2    
   110   55   57 1    
   111   57   58 1    
   112   57   59 1    
   113   57  118 1    
   114   58  119 1    
   115   58  120 1    
   116   58  121 1    
   117   59   60 am   BACKBONE|DICT|INTERRES
   118   59  122 1    
   119   60   61 2    
   120   60   62 1    
   121   62   63 1    
   122   62   64 1    
   123   62  123 1    
   124   63  124 1    
   125   63  125 1    
   126   63  126 1    
   127   64   65 am   BACKBONE|DICT|INTERRES
   128   64  127 1    
   129   65   66 2    
@<TRIPOS>SUBSTRUCTURE
     1 UNK         1 GROUP             0       ****    0 ROOT    
