@<TRIPOS>MOLECULE
3R135
127   129    1
SMALL
USER_CHARGES


@<TRIPOS>ATOM
      1 CA        -81.1094   31.3469  -76.3540 C.3       0 UNK        -0.1998 
      2 C         -80.4688   30.5088  -75.2585 C.2       0 UNK         0.4909 
      3 O         -79.4127   30.8743  -74.7432 O.2       0 UNK        -0.5240 
      4 N         -81.0854   29.3724  -74.9081 N.am      1 UNK        -0.4739 
      5 CA        -80.6415   28.4352  -73.8661 C.3       1 UNK         0.0864 
      6 C6        -81.8676   27.6906  -73.2714 C.3       11 UNK        -0.0881 
      7 S7        -81.6355   26.8309  -71.6749 S.3       11 UNK        -0.2682 
      8 C8        -80.8269   28.0609  -70.5941 C.3       11 UNK         0.0289 
      9 C9        -79.3132   27.8822  -70.5527 C.ar      11 UNK        -0.0687 
     10 C10       -78.7693   26.6469  -70.1879 C.ar      11 UNK        -0.0823 
     11 C11       -77.3858   26.4549  -70.1565 C.ar      11 UNK        -0.0830 
     12 C12       -76.5380   27.5235  -70.4610 C.ar      11 UNK        -0.1021 
     13 C13       -77.0670   28.7664  -70.8199 C.ar      11 UNK        -0.0753 
     14 C14       -78.4545   28.9426  -70.8614 C.ar      11 UNK        -0.0933 
     15 C15       -76.1363   29.9109  -71.1837 C.3       11 UNK         0.0166 
     16 S16       -75.7508   29.8775  -72.9580 S.3       11 UNK        -0.2615 
     17 C17       -74.7198   31.3758  -73.1334 C.3       11 UNK        -0.0865 
     18 CA        -73.2977   31.1088  -73.7053 C.3       10 UNK         0.0862 
     19 C         -72.3789   30.2806  -72.7668 C.2       10 UNK         0.5551 
     20 N         -72.1740   30.7315  -71.5365 N.am      10 UNK        -0.7319 
     21 O         -71.8366   29.2430  -73.1441 O.2       10 UNK        -0.5018 
     22 N         -73.3302   30.5386  -75.0568 N.am      10 UNK        -0.4509 
     23 C         -73.5676   31.2153  -76.1848 C.2       10 UNK         0.4899 
     24 O         -73.8454   32.4155  -76.2079 O.2       10 UNK        -0.4839 
     25 CA        -73.5000   30.4251  -77.5105 C.3       9 UNK         0.0222 
     26 CB        -73.0752   31.3101  -78.7022 C.3       9 UNK        -0.1966 
     27 N         -72.6815   29.2045  -77.4512 N.am      9 UNK        -0.4218 
     28 C         -71.3660   29.1076  -77.2112 C.2       9 UNK         0.5020 
     29 O         -70.6385   30.0716  -76.9657 O.2       9 UNK        -0.5274 
     30 CA        -70.7757   27.6824  -77.2414 C.3       8 UNK         0.0270 
     31 CB        -69.2484   27.6691  -77.0386 C.3       8 UNK        -0.1976 
     32 N         -71.3913   26.7985  -76.2462 N.am      8 UNK        -0.4313 
     33 C         -72.6013   26.2354  -76.3463 C.2       8 UNK         0.5041 
     34 O         -73.3709   26.4385  -77.2899 O.2       8 UNK        -0.5577 
     35 CA        -73.0320   25.3450  -75.1746 C.3       7 UNK         0.0284 
     36 CB        -73.5678   26.2085  -74.0213 C.3       7 UNK        -0.1958 
     37 N         -74.0828   24.4200  -75.5951 N.am      7 UNK        -0.4454 
     38 C         -73.9172   23.1146  -75.8420 C.2       7 UNK         0.5089 
     39 O         -72.8363   22.5277  -75.7600 O.2       7 UNK        -0.5125 
     40 CA        -75.2000   22.3418  -76.2093 C.3       6 UNK         0.0408 
     41 CB        -75.0003   20.8148  -76.3126 C.3       6 UNK        -0.1791 
     42 N         -76.2947   22.6947  -75.2978 N.am      6 UNK        -0.4762 
     43 C         -76.3737   22.4551  -73.9787 C.2       6 UNK         0.5007 
     44 O         -75.6278   21.6877  -73.3695 O.2       6 UNK        -0.5032 
     45 CA        -77.4615   23.2316  -73.2026 C.3       5 UNK         0.0783 
     46 C46       -76.9065   24.5685  -72.6555 C.3       11 UNK        -0.0857 
     47 S47       -75.8193   24.3865  -71.1977 S.3       11 UNK        -0.2512 
     48 C48       -76.8200   25.0770  -69.8357 C.3       11 UNK         0.0225 
     49 N         -78.6556   23.4900  -74.0104 N.am      5 UNK        -0.4615 
     50 C         -79.5162   22.5674  -74.4563 C.2       4 UNK         0.5053 
     51 O         -79.4360   21.3666  -74.1982 O.2       4 UNK        -0.5105 
     52 CA        -80.6506   23.0807  -75.3558 C.3       4 UNK         0.0263 
     53 CB        -81.8291   23.5863  -74.5072 C.3       4 UNK        -0.1981 
     54 N         -80.1812   24.1554  -76.2347 N.am      4 UNK        -0.4224 
     55 C         -79.5451   23.9533  -77.3977 C.2       3 UNK         0.4895 
     56 O         -79.3594   22.8409  -77.8914 O.2       3 UNK        -0.5091 
     57 CA        -79.0186   25.1950  -78.1400 C.3       3 UNK         0.0250 
     58 CB        -80.0774   25.7231  -79.1213 C.3       3 UNK        -0.1996 
     59 N         -78.6016   26.2808  -77.2497 N.am      3 UNK        -0.4254 
     60 C         -77.5346   26.2372  -76.4397 C.2       2 UNK         0.5004 
     61 O         -76.7706   25.2777  -76.3568 O.2       2 UNK        -0.5226 
     62 CA        -77.2880   27.4621  -75.5466 C.3       2 UNK         0.0269 
     63 CB        -76.4672   28.5001  -76.3271 C.3       2 UNK        -0.1926 
     64 N         -78.4968   28.0992  -75.0136 N.am      2 UNK        -0.4687 
     65 C         -79.5194   27.5019  -74.3835 C.2       1 UNK         0.5165 
     66 O         -79.6089   26.2790  -74.2539 O.2       1 UNK        -0.5079 
     67 H67       -82.0411   30.9089  -76.7112 H         1 UNK         0.0900 
     68 H68       -80.4303   31.4388  -77.2010 H         1 UNK         0.0900 
     69 H69       -81.3264   32.3474  -75.9811 H         1 UNK         0.0900 
     70 H70       -81.9324   29.1097  -75.3926 H         1 UNK         0.2959 
     71 H71       -80.1911   29.0318  -73.0740 H         1 UNK         0.1079 
     72 H72       -82.6784   28.4033  -73.1108 H         1 UNK         0.0837 
     73 H73       -82.2571   26.9680  -73.9910 H         1 UNK         0.0837 
     74 H74       -81.1072   29.0704  -70.8983 H         1 UNK         0.0685 
     75 H75       -81.2123   27.9332  -69.5818 H         1 UNK         0.0685 
     76 H76       -79.4317   25.8242  -69.9551 H         1 UNK         0.1434 
     77 H77       -75.4663   27.3779  -70.4490 H         1 UNK         0.1329 
     78 H78       -78.8614   29.9042  -71.1432 H         1 UNK         0.1335 
     79 H79       -76.5977   30.8659  -70.9276 H         1 UNK         0.0680 
     80 H80       -75.2110   29.8444  -70.6089 H         1 UNK         0.0680 
     81 H81       -74.6530   31.8952  -72.1766 H         1 UNK         0.1032 
     82 H82       -75.2516   32.0654  -73.7903 H         1 UNK         0.1032 
     83 H83       -72.7949   32.0741  -73.7918 H         1 UNK         0.0461 
     84 H84       -71.5748   30.2051  -70.9204 H         1 UNK         0.3453 
     85 H85       -72.5888   31.5914  -71.2149 H         1 UNK         0.3453 
     86 H86       -73.0545   29.5678  -75.1058 H         1 UNK         0.2984 
     87 H87       -74.5184   30.0916  -77.7091 H         1 UNK         0.0554 
     88 H88       -73.0526   30.7414  -79.6317 H         1 UNK         0.0847 
     89 H89       -72.0871   31.7457  -78.5508 H         1 UNK         0.0847 
     90 H90       -73.7735   32.1351  -78.8481 H         1 UNK         0.0847 
     91 H91       -73.1740   28.3235  -77.5905 H         1 UNK         0.3141 
     92 H92       -70.9777   27.2763  -78.2351 H         1 UNK         0.0743 
     93 H93       -68.9670   28.0560  -76.0582 H         1 UNK         0.0784 
     94 H94       -68.8438   26.6610  -77.1313 H         1 UNK         0.0784 
     95 H95       -68.7492   28.2852  -77.7880 H         1 UNK         0.0784 
     96 H96       -70.8486   26.6273  -75.4111 H         1 UNK         0.3213 
     97 H97       -72.1627   24.7875  -74.8189 H         1 UNK         0.0855 
     98 H98       -72.7865   26.8545  -73.6223 H         1 UNK         0.0814 
     99 H99       -73.9178   25.5913  -73.1948 H         1 UNK         0.0814 
    100 H100      -74.3901   26.8504  -74.3368 H         1 UNK         0.0814 
    101 H101      -74.9906   24.8288  -75.8045 H         1 UNK         0.3105 
    102 H102      -75.5018   22.6995  -77.1949 H         1 UNK         0.0547 
    103 H103      -74.2882   20.5717  -77.1019 H         1 UNK         0.0837 
    104 H104      -74.6118   20.3872  -75.3883 H         1 UNK         0.0837 
    105 H105      -75.9352   20.3081  -76.5512 H         1 UNK         0.0837 
    106 H106      -76.9246   23.3993  -75.6680 H         1 UNK         0.3020 
    107 H107      -77.7712   22.6080  -72.3610 H         1 UNK         0.1245 
    108 H108      -77.7382   25.2239  -72.4000 H         1 UNK         0.0781 
    109 H109      -76.3560   25.1058  -73.4288 H         1 UNK         0.0781 
    110 H110      -76.2009   25.1448  -68.9402 H         1 UNK         0.0836 
    111 H111      -77.6200   24.3727  -69.6024 H         1 UNK         0.0836 
    112 H112      -78.8550   24.4641  -74.2174 H         1 UNK         0.3022 
    113 H113      -81.0047   22.2460  -75.9648 H         1 UNK         0.0747 
    114 H114      -82.6493   23.9347  -75.1349 H         1 UNK         0.0793 
    115 H115      -82.2211   22.7897  -73.8736 H         1 UNK         0.0793 
    116 H116      -81.5367   24.4074  -73.8514 H         1 UNK         0.0793 
    117 H117      -80.2307   25.0960  -75.8613 H         1 UNK         0.3047 
    118 H118      -78.1445   24.8830  -78.7163 H         1 UNK         0.0822 
    119 H119      -79.6889   26.5481  -79.7187 H         1 UNK         0.0807 
    120 H120      -80.9710   26.0735  -78.6033 H         1 UNK         0.0807 
    121 H121      -80.3890   24.9417  -79.8161 H         1 UNK         0.0807 
    122 H122      -79.1700   27.1150  -77.2436 H         1 UNK         0.2946 
    123 H123      -76.7055   27.1327  -74.6855 H         1 UNK         0.1144 
    124 H124      -75.5214   28.0709  -76.6592 H         1 UNK         0.0793 
    125 H125      -76.2313   29.3722  -75.7202 H         1 UNK         0.0793 
    126 H126      -76.9969   28.8507  -77.2137 H         1 UNK         0.0793 
    127 H127      -78.5259   29.1137  -75.0531 H         1 UNK         0.2896 
@<TRIPOS>BOND
     1    1    2 1    
     2    1   67 1    
     3    1   68 1    
     4    1   69 1    
     5    2    3 2    
     6    2    4 am   BACKBONE|DICT|INTERRES
     7    4    5 1    
     8    4   70 1    
     9    5    6 1    
    10    5   65 1    
    11    5   71 1    
    12    6    7 1    
    13    6   72 1    
    14    6   73 1    
    15    7    8 1    
    16    8    9 1    
    17    8   74 1    
    18    8   75 1    
    19    9   10 ar   
    20    9   14 ar   
    21   10   11 ar   
    22   10   76 1    
    23   11   12 ar   
    24   11   48 1    
    25   12   13 ar   
    26   12   77 1    
    27   13   14 ar   
    28   13   15 1    
    29   14   78 1    
    30   15   16 1    
    31   15   79 1    
    32   15   80 1    
    33   16   17 1    
    34   17   18 1    
    35   17   81 1    
    36   17   82 1    
    37   18   19 1    
    38   18   22 1    
    39   18   83 1    
    40   19   20 am   BACKBONE|DICT|INTERRES
    41   19   21 2    
    42   20   84 1    
    43   20   85 1    
    44   22   23 am   BACKBONE|DICT|INTERRES
    45   22   86 1    
    46   23   24 2    
    47   23   25 1    
    48   25   26 1    
    49   25   27 1    
    50   25   87 1    
    51   26   88 1    
    52   26   89 1    
    53   26   90 1    
    54   27   28 am   BACKBONE|DICT|INTERRES
    55   27   91 1    
    56   28   29 2    
    57   28   30 1    
    58   30   31 1    
    59   30   32 1    
    60   30   92 1    
    61   31   93 1    
    62   31   94 1    
    63   31   95 1    
    64   32   33 am   BACKBONE|DICT|INTERRES
    65   32   96 1    
    66   33   34 2    
    67   33   35 1    
    68   35   36 1    
    69   35   37 1    
    70   35   97 1    
    71   36   98 1    
    72   36   99 1    
    73   36  100 1    
    74   37   38 am   BACKBONE|DICT|INTERRES
    75   37  101 1    
    76   38   39 2    
    77   38   40 1    
    78   40   41 1    
    79   40   42 1    
    80   40  102 1    
    81   41  103 1    
    82   41  104 1    
    83   41  105 1    
    84   42   43 am   BACKBONE|DICT|INTERRES
    85   42  106 1    
    86   43   44 2    
    87   43   45 1    
    88   45   46 1    
    89   45   49 1    
    90   45  107 1    
    91   46   47 1    
    92   46  108 1    
    93   46  109 1    
    94   47   48 1    
    95   48  110 1    
    96   48  111 1    
    97   49   50 am   BACKBONE|DICT|INTERRES
    98   49  112 1    
    99   50   51 2    
   100   50   52 1    
   101   52   53 1    
   102   52   54 1    
   103   52  113 1    
   104   53  114 1    
   105   53  115 1    
   106   53  116 1    
   107   54   55 am   BACKBONE|DICT|INTERRES
   108   54  117 1    
   109   55   56 2    
   110   55   57 1    
   111   57   58 1    
   112   57   59 1    
   113   57  118 1    
   114   58  119 1    
   115   58  120 1    
   116   58  121 1    
   117   59   60 am   BACKBONE|DICT|INTERRES
   118   59  122 1    
   119   60   61 2    
   120   60   62 1    
   121   62   63 1    
   122   62   64 1    
   123   62  123 1    
   124   63  124 1    
   125   63  125 1    
   126   63  126 1    
   127   64   65 am   BACKBONE|DICT|INTERRES
   128   64  127 1    
   129   65   66 2    
@<TRIPOS>SUBSTRUCTURE
     1 UNK         1 GROUP             0       ****    0 ROOT    
