@<TRIPOS>MOLECULE
3R135
127   129    1
SMALL
USER_CHARGES


@<TRIPOS>ATOM
      1 CA        -81.8428   23.2370  -73.6321 C.3       0 UNK        -0.1998 
      2 C         -82.2835   24.6666  -73.9043 C.2       0 UNK         0.4909 
      3 O         -83.3845   24.8860  -74.4101 O.2       0 UNK        -0.5240 
      4 N         -81.4231   25.6463  -73.6022 N.am      1 UNK        -0.4739 
      5 CA        -81.6712   27.0859  -73.7685 C.3       1 UNK         0.0864 
      6 C6        -80.8741   27.9207  -72.7332 C.3       11 UNK        -0.0881 
      7 S7        -81.3209   27.4849  -71.0179 S.3       11 UNK        -0.2682 
      8 C8        -80.7006   28.9290  -70.0986 C.3       11 UNK         0.0289 
      9 C9        -79.1914   29.0863  -70.2242 C.ar      11 UNK        -0.0687 
     10 C10       -78.3358   28.1240  -69.6808 C.ar      11 UNK        -0.0823 
     11 C11       -76.9515   28.2604  -69.8041 C.ar      11 UNK        -0.0830 
     12 C12       -76.4246   29.3881  -70.4405 C.ar      11 UNK        -0.1021 
     13 C13       -77.2662   30.3530  -71.0096 C.ar      11 UNK        -0.0753 
     14 C14       -78.6505   30.1907  -70.8901 C.ar      11 UNK        -0.0933 
     15 C15       -76.7474   31.5796  -71.7679 C.3       11 UNK         0.0166 
     16 S16       -74.9357   31.7101  -71.9787 S.3       11 UNK        -0.2615 
     17 C17       -74.6082   30.4117  -73.2218 C.3       11 UNK        -0.0865 
     18 CA        -73.0892   30.1468  -73.4261 C.3       10 UNK         0.0862 
     19 C         -72.4466   29.2178  -72.3509 C.2       10 UNK         0.5551 
     20 N         -71.4386   28.4201  -72.6875 N.am      10 UNK        -0.7319 
     21 O         -72.8487   29.2195  -71.1912 O.2       10 UNK        -0.5018 
     22 N         -72.8264   29.6647  -74.7882 N.am      10 UNK        -0.4509 
     23 C         -72.1767   30.3329  -75.7474 C.2       10 UNK         0.4899 
     24 O         -71.8011   31.5008  -75.6328 O.2       10 UNK        -0.4839 
     25 CA        -71.8980   29.5675  -77.0590 C.3       9 UNK         0.0222 
     26 CB        -70.6962   30.1440  -77.8373 C.3       9 UNK        -0.1966 
     27 N         -71.7489   28.1149  -76.8899 N.am      9 UNK        -0.4218 
     28 C         -70.8550   27.4643  -76.1245 C.2       9 UNK         0.5020 
     29 O         -70.0274   28.0372  -75.4138 O.2       9 UNK        -0.5274 
     30 CA        -70.9092   25.9222  -76.1116 C.3       8 UNK         0.0270 
     31 CB        -70.7530   25.3639  -74.6848 C.3       8 UNK        -0.1976 
     32 N         -72.1634   25.4191  -76.6716 N.am      8 UNK        -0.4313 
     33 C         -72.3446   24.9810  -77.9245 C.2       8 UNK         0.5041 
     34 O         -71.4359   24.8542  -78.7452 O.2       8 UNK        -0.5577 
     35 CA        -73.7928   24.6712  -78.3490 C.3       7 UNK         0.0284 
     36 CB        -74.0617   23.1582  -78.3144 C.3       7 UNK        -0.1958 
     37 N         -74.7853   25.3716  -77.5245 N.am      7 UNK        -0.4454 
     38 C         -75.0137   26.6928  -77.5916 C.2       7 UNK         0.5089 
     39 O         -74.4425   27.4391  -78.3862 O.2       7 UNK        -0.5125 
     40 CA        -75.9871   27.3010  -76.5663 C.3       6 UNK         0.0408 
     41 CB        -77.4029   27.3753  -77.1514 C.3       6 UNK        -0.1791 
     42 N         -76.0167   26.5843  -75.2877 N.am      6 UNK        -0.4762 
     43 C         -74.9711   26.4889  -74.4508 C.2       6 UNK         0.5007 
     44 O         -73.8771   27.0044  -74.6774 O.2       6 UNK        -0.5032 
     45 CA        -75.1625   25.6519  -73.1694 C.3       5 UNK         0.0783 
     46 C46       -75.6429   26.5815  -72.0330 C.3       11 UNK        -0.0857 
     47 S47       -75.9661   25.7423  -70.4458 S.3       11 UNK        -0.2512 
     48 C48       -76.0195   27.1654  -69.3013 C.3       11 UNK         0.0225 
     49 N         -76.0560   24.5056  -73.3720 N.am      5 UNK        -0.4615 
     50 C         -75.8858   23.5360  -74.2803 C.2       4 UNK         0.5053 
     51 O         -74.9286   23.4849  -75.0524 O.2       4 UNK        -0.5105 
     52 CA        -76.9940   22.4772  -74.4029 C.3       4 UNK         0.0263 
     53 CB        -77.8428   22.3064  -73.1214 C.3       4 UNK        -0.1981 
     54 N         -77.8427   22.7437  -75.5718 N.am      4 UNK        -0.4224 
     55 C         -78.5856   23.8384  -75.7928 C.2       3 UNK         0.4895 
     56 O         -78.6656   24.7839  -75.0016 O.2       3 UNK        -0.5091 
     57 CA        -79.3657   23.8940  -77.1175 C.3       3 UNK         0.0250 
     58 CB        -80.0968   22.5762  -77.4421 C.3       3 UNK        -0.1996 
     59 N         -80.3379   24.9766  -77.0206 N.am      3 UNK        -0.4254 
     60 C         -80.7585   25.7862  -77.9984 C.2       2 UNK         0.5004 
     61 O         -80.3891   25.6908  -79.1691 O.2       2 UNK        -0.5226 
     62 CA        -81.7729   26.8828  -77.6069 C.3       2 UNK         0.0269 
     63 CB        -83.0872   26.7134  -78.3879 C.3       2 UNK        -0.1926 
     64 N         -82.0760   26.8676  -76.1710 N.am      2 UNK        -0.4687 
     65 C         -81.3718   27.5021  -75.2248 C.2       1 UNK         0.5165 
     66 O         -80.4882   28.3225  -75.4736 O.2       1 UNK        -0.5079 
     67 H67       -80.7913   23.1829  -73.3539 H         1 UNK         0.0900 
     68 H68       -82.4327   22.8123  -72.8205 H         1 UNK         0.0900 
     69 H69       -81.9908   22.6213  -74.5184 H         1 UNK         0.0900 
     70 H70       -80.5104   25.4097  -73.2374 H         1 UNK         0.2959 
     71 H71       -82.7324   27.2844  -73.5999 H         1 UNK         0.1079 
     72 H72       -81.0620   28.9862  -72.8794 H         1 UNK         0.0837 
     73 H73       -79.7991   27.7757  -72.8608 H         1 UNK         0.0837 
     74 H74       -80.9601   28.8142  -69.0453 H         1 UNK         0.0685 
     75 H75       -81.2189   29.8241  -70.4459 H         1 UNK         0.0685 
     76 H76       -78.7494   27.2532  -69.1902 H         1 UNK         0.1434 
     77 H77       -75.3518   29.4836  -70.5153 H         1 UNK         0.1329 
     78 H78       -79.3116   30.9300  -71.3219 H         1 UNK         0.1335 
     79 H79       -77.0840   32.4726  -71.2394 H         1 UNK         0.0680 
     80 H80       -77.2129   31.6134  -72.7541 H         1 UNK         0.0680 
     81 H81       -75.0544   30.7573  -74.1558 H         1 UNK         0.1032 
     82 H82       -75.1370   29.4927  -72.9688 H         1 UNK         0.1032 
     83 H83       -72.5705   31.0978  -73.2952 H         1 UNK         0.0461 
     84 H84       -71.0261   27.8319  -71.9821 H         1 UNK         0.3453 
     85 H85       -71.0590   28.4252  -73.6264 H         1 UNK         0.3453 
     86 H86       -73.0815   28.6924  -74.9459 H         1 UNK         0.2984 
     87 H87       -72.7860   29.7059  -77.6773 H         1 UNK         0.0554 
     88 H88       -70.8591   31.1913  -78.0945 H         1 UNK         0.0847 
     89 H89       -70.5330   29.6063  -78.7713 H         1 UNK         0.0847 
     90 H90       -69.7759   30.0917  -77.2546 H         1 UNK         0.0847 
     91 H91       -72.4138   27.5585  -77.4128 H         1 UNK         0.3141 
     92 H92       -70.0659   25.5682  -76.7079 H         1 UNK         0.0743 
     93 H93       -69.7968   25.6564  -74.2489 H         1 UNK         0.0784 
     94 H94       -71.5387   25.7256  -74.0207 H         1 UNK         0.0784 
     95 H95       -70.7872   24.2743  -74.6805 H         1 UNK         0.0784 
     96 H96       -72.9761   25.5179  -76.0757 H         1 UNK         0.3213 
     97 H97       -73.9103   25.0100  -79.3810 H         1 UNK         0.0855 
     98 H98       -73.8952   22.7372  -77.3228 H         1 UNK         0.0814 
     99 H99       -73.3976   22.6325  -79.0018 H         1 UNK         0.0814 
    100 H100      -75.0843   22.9269  -78.6125 H         1 UNK         0.0814 
    101 H101      -75.2340   24.8302  -76.7955 H         1 UNK         0.3105 
    102 H102      -75.6528   28.3206  -76.3620 H         1 UNK         0.0547 
    103 H103      -77.7854   26.3881  -77.4048 H         1 UNK         0.0837 
    104 H104      -78.0971   27.8370  -76.4506 H         1 UNK         0.0837 
    105 H105      -77.4183   27.9731  -78.0636 H         1 UNK         0.0837 
    106 H106      -76.8821   26.1167  -75.0393 H         1 UNK         0.3020 
    107 H107      -74.1825   25.2530  -72.8984 H         1 UNK         0.1245 
    108 H108      -76.5595   27.0981  -72.3272 H         1 UNK         0.0781 
    109 H109      -74.8935   27.3536  -71.8521 H         1 UNK         0.0781 
    110 H110      -75.0081   27.5540  -69.1694 H         1 UNK         0.0836 
    111 H111      -76.3463   26.8234  -68.3182 H         1 UNK         0.0836 
    112 H112      -76.8852   24.4852  -72.7967 H         1 UNK         0.3022 
    113 H113      -76.4908   21.5275  -74.5916 H         1 UNK         0.0747 
    114 H114      -78.5545   21.4883  -73.2327 H         1 UNK         0.0793 
    115 H115      -77.2112   22.0660  -72.2650 H         1 UNK         0.0793 
    116 H116      -78.4104   23.2014  -72.8678 H         1 UNK         0.0793 
    117 H117      -77.8174   22.0343  -76.2908 H         1 UNK         0.3047 
    118 H118      -78.6506   24.1167  -77.9120 H         1 UNK         0.0822 
    119 H119      -80.7103   22.6772  -78.3378 H         1 UNK         0.0807 
    120 H120      -80.7511   22.2654  -76.6272 H         1 UNK         0.0807 
    121 H121      -79.3959   21.7630  -77.6322 H         1 UNK         0.0807 
    122 H122      -80.6122   25.2011  -76.0739 H         1 UNK         0.2946 
    123 H123      -81.3302   27.8443  -77.8775 H         1 UNK         0.1144 
    124 H124      -83.7971   27.5042  -78.1447 H         1 UNK         0.0793 
    125 H125      -83.5637   25.7561  -78.1728 H         1 UNK         0.0793 
    126 H126      -82.9130   26.7571  -79.4639 H         1 UNK         0.0793 
    127 H127      -82.7698   26.1947  -75.8581 H         1 UNK         0.2896 
@<TRIPOS>BOND
     1    1    2 1    
     2    1   67 1    
     3    1   68 1    
     4    1   69 1    
     5    2    3 2    
     6    2    4 am   BACKBONE|DICT|INTERRES
     7    4    5 1    
     8    4   70 1    
     9    5    6 1    
    10    5   65 1    
    11    5   71 1    
    12    6    7 1    
    13    6   72 1    
    14    6   73 1    
    15    7    8 1    
    16    8    9 1    
    17    8   74 1    
    18    8   75 1    
    19    9   10 ar   
    20    9   14 ar   
    21   10   11 ar   
    22   10   76 1    
    23   11   12 ar   
    24   11   48 1    
    25   12   13 ar   
    26   12   77 1    
    27   13   14 ar   
    28   13   15 1    
    29   14   78 1    
    30   15   16 1    
    31   15   79 1    
    32   15   80 1    
    33   16   17 1    
    34   17   18 1    
    35   17   81 1    
    36   17   82 1    
    37   18   19 1    
    38   18   22 1    
    39   18   83 1    
    40   19   20 am   BACKBONE|DICT|INTERRES
    41   19   21 2    
    42   20   84 1    
    43   20   85 1    
    44   22   23 am   BACKBONE|DICT|INTERRES
    45   22   86 1    
    46   23   24 2    
    47   23   25 1    
    48   25   26 1    
    49   25   27 1    
    50   25   87 1    
    51   26   88 1    
    52   26   89 1    
    53   26   90 1    
    54   27   28 am   BACKBONE|DICT|INTERRES
    55   27   91 1    
    56   28   29 2    
    57   28   30 1    
    58   30   31 1    
    59   30   32 1    
    60   30   92 1    
    61   31   93 1    
    62   31   94 1    
    63   31   95 1    
    64   32   33 am   BACKBONE|DICT|INTERRES
    65   32   96 1    
    66   33   34 2    
    67   33   35 1    
    68   35   36 1    
    69   35   37 1    
    70   35   97 1    
    71   36   98 1    
    72   36   99 1    
    73   36  100 1    
    74   37   38 am   BACKBONE|DICT|INTERRES
    75   37  101 1    
    76   38   39 2    
    77   38   40 1    
    78   40   41 1    
    79   40   42 1    
    80   40  102 1    
    81   41  103 1    
    82   41  104 1    
    83   41  105 1    
    84   42   43 am   BACKBONE|DICT|INTERRES
    85   42  106 1    
    86   43   44 2    
    87   43   45 1    
    88   45   46 1    
    89   45   49 1    
    90   45  107 1    
    91   46   47 1    
    92   46  108 1    
    93   46  109 1    
    94   47   48 1    
    95   48  110 1    
    96   48  111 1    
    97   49   50 am   BACKBONE|DICT|INTERRES
    98   49  112 1    
    99   50   51 2    
   100   50   52 1    
   101   52   53 1    
   102   52   54 1    
   103   52  113 1    
   104   53  114 1    
   105   53  115 1    
   106   53  116 1    
   107   54   55 am   BACKBONE|DICT|INTERRES
   108   54  117 1    
   109   55   56 2    
   110   55   57 1    
   111   57   58 1    
   112   57   59 1    
   113   57  118 1    
   114   58  119 1    
   115   58  120 1    
   116   58  121 1    
   117   59   60 am   BACKBONE|DICT|INTERRES
   118   59  122 1    
   119   60   61 2    
   120   60   62 1    
   121   62   63 1    
   122   62   64 1    
   123   62  123 1    
   124   63  124 1    
   125   63  125 1    
   126   63  126 1    
   127   64   65 am   BACKBONE|DICT|INTERRES
   128   64  127 1    
   129   65   66 2    
@<TRIPOS>SUBSTRUCTURE
     1 UNK         1 GROUP             0       ****    0 ROOT    
