@<TRIPOS>MOLECULE
3R135
127   129    1
SMALL
USER_CHARGES


@<TRIPOS>ATOM
      1 CA        -85.7199   23.6617  -71.3854 C.3       0 UNK        -0.1998 
      2 C         -84.5727   24.6609  -71.3996 C.2       0 UNK         0.4909 
      3 O         -84.4736   25.4942  -70.4983 O.2       0 UNK        -0.5240 
      4 N         -83.7069   24.5867  -72.4145 N.am      1 UNK        -0.4739 
      5 CA        -82.5600   25.4680  -72.6126 C.3       1 UNK         0.0864 
      6 C6        -81.3501   25.0358  -71.7345 C.3       11 UNK        -0.0881 
      7 S7        -79.7899   25.9306  -72.0596 S.3       11 UNK        -0.2682 
      8 C8        -80.0114   27.3999  -71.0159 C.3       11 UNK         0.0289 
      9 C9        -78.9478   28.4476  -71.3072 C.ar      11 UNK        -0.0687 
     10 C10       -79.1269   29.3592  -72.3521 C.ar      11 UNK        -0.0823 
     11 C11       -78.1777   30.3567  -72.5935 C.ar      11 UNK        -0.0830 
     12 C12       -77.0419   30.4335  -71.7828 C.ar      11 UNK        -0.1021 
     13 C13       -76.8323   29.5097  -70.7506 C.ar      11 UNK        -0.0753 
     14 C14       -77.7973   28.5246  -70.5167 C.ar      11 UNK        -0.0933 
     15 C15       -75.6052   29.5748  -69.8404 C.3       11 UNK         0.0166 
     16 S16       -74.1037   30.2629  -70.6179 S.3       11 UNK        -0.2615 
     17 C17       -73.7564   29.0061  -71.8932 C.3       11 UNK        -0.0865 
     18 CA        -72.3068   29.0993  -72.4452 C.3       10 UNK         0.0862 
     19 C         -71.2760   28.3398  -71.5524 C.2       10 UNK         0.5551 
     20 N         -70.5016   27.3924  -72.0692 N.am      10 UNK        -0.7319 
     21 O         -71.1620   28.6226  -70.3626 O.2       10 UNK        -0.5018 
     22 N         -72.2699   28.7264  -73.8664 N.am      10 UNK        -0.4509 
     23 C         -71.3492   29.1361  -74.7476 C.2       10 UNK         0.4899 
     24 O         -70.4751   29.9648  -74.4872 O.2       10 UNK        -0.4839 
     25 CA        -71.4121   28.4945  -76.1496 C.3       9 UNK         0.0222 
     26 CB        -70.1143   28.6969  -76.9603 C.3       9 UNK        -0.1966 
     27 N         -71.7829   27.0726  -76.1187 N.am      9 UNK        -0.4218 
     28 C         -71.1503   26.0846  -75.4657 C.2       9 UNK         0.5020 
     29 O         -70.1367   26.2537  -74.7864 O.2       9 UNK        -0.5274 
     30 CA        -71.7511   24.6701  -75.5481 C.3       8 UNK         0.0270 
     31 CB        -72.2810   24.2198  -74.1757 C.3       8 UNK        -0.1976 
     32 N         -72.8052   24.5330  -76.5617 N.am      8 UNK        -0.4313 
     33 C         -72.5524   24.3226  -77.8613 C.2       8 UNK         0.5041 
     34 O         -71.4189   24.2916  -78.3422 O.2       8 UNK        -0.5577 
     35 CA        -73.7581   24.0919  -78.7778 C.3       7 UNK         0.0284 
     36 CB        -74.3542   22.6916  -78.5515 C.3       7 UNK        -0.1958 
     37 N         -74.7954   25.1084  -78.5935 N.am      7 UNK        -0.4454 
     38 C         -74.8889   26.2167  -79.3400 C.2       7 UNK         0.5089 
     39 O         -74.0476   26.5559  -80.1732 O.2       7 UNK        -0.5125 
     40 CA        -76.1556   27.0694  -79.1686 C.3       6 UNK         0.0408 
     41 CB        -77.3870   26.3327  -79.7220 C.3       6 UNK        -0.1791 
     42 N         -76.4144   27.4702  -77.7883 N.am      6 UNK        -0.4762 
     43 C         -75.7086   28.3800  -77.1034 C.2       6 UNK         0.5007 
     44 O         -74.6974   28.9333  -77.5341 O.2       6 UNK        -0.5032 
     45 CA        -76.2361   28.7305  -75.6981 C.3       5 UNK         0.0783 
     46 C46       -77.4711   29.6755  -75.7662 C.3       11 UNK        -0.0857 
     47 S47       -77.1278   31.2949  -75.0050 S.3       11 UNK        -0.2512 
     48 C48       -78.3975   31.3811  -73.6997 C.3       11 UNK         0.0225 
     49 N         -76.5244   27.5097  -74.9468 N.am      5 UNK        -0.4615 
     50 C         -75.5879   26.7054  -74.4330 C.2       4 UNK         0.5053 
     51 O         -74.3851   26.9579  -74.4616 O.2       4 UNK        -0.5105 
     52 CA        -76.0634   25.3857  -73.8059 C.3       4 UNK         0.0263 
     53 CB        -76.2369   25.5462  -72.2898 C.3       4 UNK        -0.1981 
     54 N         -77.2970   24.8780  -74.4170 N.am      4 UNK        -0.4224 
     55 C         -77.3400   24.3832  -75.6633 C.2       3 UNK         0.4895 
     56 O         -76.3549   24.3096  -76.3984 O.2       3 UNK        -0.5091 
     57 CA        -78.7036   23.9227  -76.2007 C.3       3 UNK         0.0250 
     58 CB        -79.0487   22.5247  -75.6645 C.3       3 UNK        -0.1996 
     59 N         -79.8135   24.8378  -75.9235 N.am      3 UNK        -0.4254 
     60 C         -79.8782   26.1353  -76.2492 C.2       2 UNK         0.5004 
     61 O         -78.9451   26.7604  -76.7505 O.2       2 UNK        -0.5226 
     62 CA        -81.1947   26.8765  -75.9532 C.3       2 UNK         0.0269 
     63 CB        -82.2321   26.6327  -77.0661 C.3       2 UNK        -0.1926 
     64 N         -81.7477   26.6110  -74.6165 N.am      2 UNK        -0.4687 
     65 C         -82.2449   25.4695  -74.1175 C.2       1 UNK         0.5165 
     66 O         -82.4007   24.4347  -74.7725 O.2       1 UNK        -0.5079 
     67 H67       -86.6748   24.1860  -71.4127 H         1 UNK         0.0900 
     68 H68       -85.6804   22.9840  -72.2382 H         1 UNK         0.0900 
     69 H69       -85.6850   23.0635  -70.4753 H         1 UNK         0.0900 
     70 H70       -83.8346   23.9114  -73.1593 H         1 UNK         0.2959 
     71 H71       -82.8552   26.4825  -72.3350 H         1 UNK         0.1079 
     72 H72       -81.6009   25.1402  -70.6776 H         1 UNK         0.0837 
     73 H73       -81.1484   23.9735  -71.8843 H         1 UNK         0.0837 
     74 H74       -81.0011   27.8262  -71.1859 H         1 UNK         0.0685 
     75 H75       -79.9800   27.1042  -69.9660 H         1 UNK         0.0685 
     76 H76       -80.0163   29.3024  -72.9640 H         1 UNK         0.1434 
     77 H77       -76.3226   31.2197  -71.9642 H         1 UNK         0.1329 
     78 H78       -77.6582   27.8182  -69.7096 H         1 UNK         0.1335 
     79 H79       -75.8548   30.1881  -68.9738 H         1 UNK         0.0680 
     80 H80       -75.3678   28.5811  -69.4570 H         1 UNK         0.0680 
     81 H81       -73.9702   28.0068  -71.5094 H         1 UNK         0.1032 
     82 H82       -74.4792   29.1737  -72.6934 H         1 UNK         0.1032 
     83 H83       -72.0078   30.1484  -72.4020 H         1 UNK         0.0461 
     84 H84       -69.8408   26.9241  -71.4705 H         1 UNK         0.3453 
     85 H85       -70.5366   27.1560  -73.0547 H         1 UNK         0.3453 
     86 H86       -72.9517   28.0280  -74.1587 H         1 UNK         0.2984 
     87 H87       -72.2121   29.0098  -76.6804 H         1 UNK         0.0554 
     88 H88       -69.8995   29.7572  -77.0982 H         1 UNK         0.0847 
     89 H89       -70.1934   28.2525  -77.9524 H         1 UNK         0.0847 
     90 H90       -69.2524   28.2527  -76.4613 H         1 UNK         0.0847 
     91 H91       -72.6380   26.8333  -76.6004 H         1 UNK         0.3141 
     92 H92       -70.9332   23.9961  -75.8124 H         1 UNK         0.0743 
     93 H93       -72.9905   24.9298  -73.7558 H         1 UNK         0.0784 
     94 H94       -72.7647   23.2444  -74.2303 H         1 UNK         0.0784 
     95 H95       -71.4630   24.1337  -73.4592 H         1 UNK         0.0784 
     96 H96       -73.7657   24.5502  -76.2456 H         1 UNK         0.3213 
     97 H97       -73.3984   24.1241  -79.8090 H         1 UNK         0.0855 
     98 H98       -74.7148   22.5565  -77.5315 H         1 UNK         0.0814 
     99 H99       -73.6076   21.9179  -78.7357 H         1 UNK         0.0814 
    100 H100      -75.1883   22.5032  -79.2275 H         1 UNK         0.0814 
    101 H101      -75.5056   24.9147  -77.8885 H         1 UNK         0.3105 
    102 H102      -76.0226   27.9789  -79.7585 H         1 UNK         0.0547 
    103 H103      -77.2281   26.0249  -80.7564 H         1 UNK         0.0837 
    104 H104      -77.6174   25.4364  -79.1449 H         1 UNK         0.0837 
    105 H105      -78.2698   26.9721  -79.7062 H         1 UNK         0.0837 
    106 H106      -77.2606   27.0977  -77.3595 H         1 UNK         0.3020 
    107 H107      -75.4179   29.2407  -75.1837 H         1 UNK         0.1245 
    108 H108      -78.3371   29.2257  -75.2785 H         1 UNK         0.0781 
    109 H109      -77.8003   29.8622  -76.7908 H         1 UNK         0.0781 
    110 H110      -79.3838   31.2663  -74.1523 H         1 UNK         0.0836 
    111 H111      -78.3803   32.3800  -73.2616 H         1 UNK         0.0836 
    112 H112      -77.4871   27.2060  -74.9307 H         1 UNK         0.3022 
    113 H113      -75.2860   24.6386  -73.9734 H         1 UNK         0.0747 
    114 H114      -76.6144   24.6336  -71.8284 H         1 UNK         0.0793 
    115 H115      -75.2839   25.7811  -71.8143 H         1 UNK         0.0793 
    116 H116      -76.9226   26.3569  -72.0499 H         1 UNK         0.0793 
    117 H117      -78.1459   24.9272  -73.8697 H         1 UNK         0.3047 
    118 H118      -78.6127   23.8548  -77.2865 H         1 UNK         0.0822 
    119 H119      -79.9512   22.1323  -76.1337 H         1 UNK         0.0807 
    120 H120      -79.2098   22.5336  -74.5857 H         1 UNK         0.0807 
    121 H121      -78.2444   21.8166  -75.8700 H         1 UNK         0.0807 
    122 H122      -80.6519   24.4319  -75.5173 H         1 UNK         0.2946 
    123 H123      -80.9523   27.9408  -75.9665 H         1 UNK         0.1144 
    124 H124      -83.1421   27.2068  -76.8918 H         1 UNK         0.0793 
    125 H125      -82.5094   25.5816  -77.1495 H         1 UNK         0.0793 
    126 H126      -81.8373   26.9385  -78.0360 H         1 UNK         0.0793 
    127 H127      -81.6398   27.3784  -73.9683 H         1 UNK         0.2896 
@<TRIPOS>BOND
     1    1    2 1    
     2    1   67 1    
     3    1   68 1    
     4    1   69 1    
     5    2    3 2    
     6    2    4 am   BACKBONE|DICT|INTERRES
     7    4    5 1    
     8    4   70 1    
     9    5    6 1    
    10    5   65 1    
    11    5   71 1    
    12    6    7 1    
    13    6   72 1    
    14    6   73 1    
    15    7    8 1    
    16    8    9 1    
    17    8   74 1    
    18    8   75 1    
    19    9   10 ar   
    20    9   14 ar   
    21   10   11 ar   
    22   10   76 1    
    23   11   12 ar   
    24   11   48 1    
    25   12   13 ar   
    26   12   77 1    
    27   13   14 ar   
    28   13   15 1    
    29   14   78 1    
    30   15   16 1    
    31   15   79 1    
    32   15   80 1    
    33   16   17 1    
    34   17   18 1    
    35   17   81 1    
    36   17   82 1    
    37   18   19 1    
    38   18   22 1    
    39   18   83 1    
    40   19   20 am   BACKBONE|DICT|INTERRES
    41   19   21 2    
    42   20   84 1    
    43   20   85 1    
    44   22   23 am   BACKBONE|DICT|INTERRES
    45   22   86 1    
    46   23   24 2    
    47   23   25 1    
    48   25   26 1    
    49   25   27 1    
    50   25   87 1    
    51   26   88 1    
    52   26   89 1    
    53   26   90 1    
    54   27   28 am   BACKBONE|DICT|INTERRES
    55   27   91 1    
    56   28   29 2    
    57   28   30 1    
    58   30   31 1    
    59   30   32 1    
    60   30   92 1    
    61   31   93 1    
    62   31   94 1    
    63   31   95 1    
    64   32   33 am   BACKBONE|DICT|INTERRES
    65   32   96 1    
    66   33   34 2    
    67   33   35 1    
    68   35   36 1    
    69   35   37 1    
    70   35   97 1    
    71   36   98 1    
    72   36   99 1    
    73   36  100 1    
    74   37   38 am   BACKBONE|DICT|INTERRES
    75   37  101 1    
    76   38   39 2    
    77   38   40 1    
    78   40   41 1    
    79   40   42 1    
    80   40  102 1    
    81   41  103 1    
    82   41  104 1    
    83   41  105 1    
    84   42   43 am   BACKBONE|DICT|INTERRES
    85   42  106 1    
    86   43   44 2    
    87   43   45 1    
    88   45   46 1    
    89   45   49 1    
    90   45  107 1    
    91   46   47 1    
    92   46  108 1    
    93   46  109 1    
    94   47   48 1    
    95   48  110 1    
    96   48  111 1    
    97   49   50 am   BACKBONE|DICT|INTERRES
    98   49  112 1    
    99   50   51 2    
   100   50   52 1    
   101   52   53 1    
   102   52   54 1    
   103   52  113 1    
   104   53  114 1    
   105   53  115 1    
   106   53  116 1    
   107   54   55 am   BACKBONE|DICT|INTERRES
   108   54  117 1    
   109   55   56 2    
   110   55   57 1    
   111   57   58 1    
   112   57   59 1    
   113   57  118 1    
   114   58  119 1    
   115   58  120 1    
   116   58  121 1    
   117   59   60 am   BACKBONE|DICT|INTERRES
   118   59  122 1    
   119   60   61 2    
   120   60   62 1    
   121   62   63 1    
   122   62   64 1    
   123   62  123 1    
   124   63  124 1    
   125   63  125 1    
   126   63  126 1    
   127   64   65 am   BACKBONE|DICT|INTERRES
   128   64  127 1    
   129   65   66 2    
@<TRIPOS>SUBSTRUCTURE
     1 UNK         1 GROUP             0       ****    0 ROOT    
