@<TRIPOS>MOLECULE
3R135
127   129    1
SMALL
USER_CHARGES


@<TRIPOS>ATOM
      1 CA        -86.6992   28.9320  -76.3279 C.3       0 UNK        -0.1998 
      2 C         -85.1987   28.7030  -76.4301 C.2       0 UNK         0.4909 
      3 O         -84.6609   28.6501  -77.5369 O.2       0 UNK        -0.5240 
      4 N         -84.5164   28.5732  -75.2853 N.am      1 UNK        -0.4739 
      5 CA        -83.0839   28.2857  -75.1962 C.3       1 UNK         0.0864 
      6 C6        -82.5066   28.7452  -73.8307 C.3       11 UNK        -0.0881 
      7 S7        -80.6824   28.6738  -73.7513 S.3       11 UNK        -0.2682 
      8 C8        -80.4260   29.0332  -71.9870 C.3       11 UNK         0.0289 
      9 C9        -78.9744   28.8505  -71.5623 C.ar      11 UNK        -0.0687 
     10 C10       -78.5595   27.6485  -70.9800 C.ar      11 UNK        -0.0823 
     11 C11       -77.2490   27.4979  -70.5149 C.ar      11 UNK        -0.0830 
     12 C12       -76.3471   28.5560  -70.6456 C.ar      11 UNK        -0.1021 
     13 C13       -76.7405   29.7560  -71.2460 C.ar      11 UNK        -0.0753 
     14 C14       -78.0563   29.8971  -71.7027 C.ar      11 UNK        -0.0933 
     15 C15       -75.7589   30.9157  -71.3565 C.3       11 UNK         0.0166 
     16 S16       -74.5979   30.7093  -72.7439 S.3       11 UNK        -0.2615 
     17 C17       -73.4010   29.5130  -72.0527 C.3       11 UNK        -0.0865 
     18 CA        -72.0061   29.5884  -72.7296 C.3       10 UNK         0.0862 
     19 C         -70.9698   28.6574  -72.0328 C.2       10 UNK         0.5551 
     20 N         -70.1936   27.8548  -72.7533 N.am      10 UNK        -0.7319 
     21 O         -70.8542   28.6749  -70.8097 O.2       10 UNK        -0.5018 
     22 N         -72.0968   29.3615  -74.1791 N.am      10 UNK        -0.4509 
     23 C         -71.4175   30.0457  -75.1058 C.2       10 UNK         0.4899 
     24 O         -70.6638   30.9860  -74.8475 O.2       10 UNK        -0.4839 
     25 CA        -71.6201   29.6070  -76.5685 C.3       9 UNK         0.0222 
     26 CB        -70.5238   30.1422  -77.5148 C.3       9 UNK        -0.1966 
     27 N         -71.7839   28.1574  -76.7328 N.am      9 UNK        -0.4218 
     28 C         -70.9019   27.1929  -76.4244 C.2       9 UNK         0.5020 
     29 O         -69.8217   27.4195  -75.8760 O.2       9 UNK        -0.5274 
     30 CA        -71.2712   25.7318  -76.7678 C.3       8 UNK         0.0270 
     31 CB        -70.8622   24.7671  -75.6395 C.3       8 UNK        -0.1976 
     32 N         -72.6936   25.5394  -77.0633 N.am      8 UNK        -0.4313 
     33 C         -73.2965   25.7957  -78.2322 C.2       8 UNK         0.5041 
     34 O         -72.6958   26.1402  -79.2499 O.2       8 UNK        -0.5577 
     35 CA        -74.8360   25.7278  -78.2479 C.3       7 UNK         0.0284 
     36 CB        -75.3162   24.3105  -78.5947 C.3       7 UNK        -0.1958 
     37 N         -75.4384   26.1658  -76.9820 N.am      7 UNK        -0.4454 
     38 C         -75.3143   27.4017  -76.4731 C.2       7 UNK         0.5089 
     39 O         -74.7530   28.3247  -77.0633 O.2       7 UNK        -0.5125 
     40 CA        -75.8298   27.6371  -75.0445 C.3       6 UNK         0.0408 
     41 CB        -77.3091   28.0265  -75.0410 C.3       6 UNK        -0.1791 
     42 N         -75.6140   26.4815  -74.1720 N.am      6 UNK        -0.4762 
     43 C         -74.4076   26.1109  -73.7246 C.2       6 UNK         0.5007 
     44 O         -73.3702   26.7152  -73.9973 O.2       6 UNK        -0.5032 
     45 CA        -74.3335   24.8317  -72.8704 C.3       5 UNK         0.0783 
     46 C46       -74.7122   25.0868  -71.3840 C.3       11 UNK        -0.0857 
     47 S47       -76.4923   24.8783  -71.0122 S.3       11 UNK        -0.2512 
     48 C48       -76.8284   26.2106  -69.8230 C.3       11 UNK         0.0225 
     49 N         -75.0900   23.7248  -73.4629 N.am      5 UNK        -0.4615 
     50 C         -74.8394   23.1512  -74.6452 C.2       4 UNK         0.5053 
     51 O         -73.8865   23.4507  -75.3618 O.2       4 UNK        -0.5105 
     52 CA        -75.8463   22.0896  -75.1231 C.3       4 UNK         0.0263 
     53 CB        -75.4697   20.7053  -74.5720 C.3       4 UNK        -0.1981 
     54 N         -77.2372   22.4003  -74.7671 N.am      4 UNK        -0.4224 
     55 C         -77.9105   23.4760  -75.2008 C.2       3 UNK         0.4895 
     56 O         -77.4079   24.3264  -75.9351 O.2       3 UNK        -0.5091 
     57 CA        -79.3417   23.6444  -74.6528 C.3       3 UNK         0.0250 
     58 CB        -79.3777   24.7045  -73.5343 C.3       3 UNK        -0.1996 
     59 N         -80.3791   23.9267  -75.6563 N.am      3 UNK        -0.4254 
     60 C         -80.5294   25.0111  -76.4327 C.2       2 UNK         0.5004 
     61 O         -79.7035   25.9128  -76.5591 O.2       2 UNK        -0.5226 
     62 CA        -81.8789   25.1880  -77.1556 C.3       2 UNK         0.0269 
     63 CB        -82.8663   24.0053  -77.0127 C.3       2 UNK        -0.1926 
     64 N         -82.4810   26.4578  -76.7225 N.am      2 UNK        -0.4687 
     65 C         -82.8421   26.7868  -75.4711 C.2       1 UNK         0.5165 
     66 O         -82.9845   25.9741  -74.5545 O.2       1 UNK        -0.5079 
     67 H67       -87.0371   28.9675  -75.2923 H         1 UNK         0.0900 
     68 H68       -86.9680   29.8743  -76.8045 H         1 UNK         0.0900 
     69 H69       -87.2361   28.1292  -76.8326 H         1 UNK         0.0900 
     70 H70       -85.0142   28.5963  -74.4064 H         1 UNK         0.2959 
     71 H71       -82.5716   28.8621  -75.9705 H         1 UNK         0.1079 
     72 H72       -82.9267   28.1549  -73.0139 H         1 UNK         0.0837 
     73 H73       -82.8004   29.7783  -73.6376 H         1 UNK         0.0837 
     74 H74       -80.7473   30.0551  -71.7796 H         1 UNK         0.0685 
     75 H75       -81.0690   28.3839  -71.3905 H         1 UNK         0.0685 
     76 H76       -79.2635   26.8351  -70.8677 H         1 UNK         0.1434 
     77 H77       -75.3414   28.4498  -70.2651 H         1 UNK         0.1329 
     78 H78       -78.3734   30.8279  -72.1527 H         1 UNK         0.1335 
     79 H79       -76.3024   31.8506  -71.5017 H         1 UNK         0.0680 
     80 H80       -75.2087   31.0327  -70.4218 H         1 UNK         0.0680 
     81 H81       -73.8186   28.5114  -72.1444 H         1 UNK         0.1032 
     82 H82       -73.3030   29.7052  -70.9829 H         1 UNK         0.1032 
     83 H83       -71.6344   30.5999  -72.5569 H         1 UNK         0.0461 
     84 H84       -69.5247   27.2660  -72.2840 H         1 UNK         0.3453 
     85 H85       -70.2547   27.8429  -73.7632 H         1 UNK         0.3453 
     86 H86       -72.6436   28.5519  -74.4530 H         1 UNK         0.2984 
     87 H87       -72.5654   30.0513  -76.8825 H         1 UNK         0.0554 
     88 H88       -70.7056   29.8376  -78.5454 H         1 UNK         0.0847 
     89 H89       -69.5335   29.7862  -77.2290 H         1 UNK         0.0847 
     90 H90       -70.4928   31.2324  -77.5023 H         1 UNK         0.0847 
     91 H91       -72.6782   27.8772  -77.1192 H         1 UNK         0.3141 
     92 H92       -70.6962   25.4653  -77.6568 H         1 UNK         0.0743 
     93 H93       -71.1039   23.7348  -75.8933 H         1 UNK         0.0784 
     94 H94       -69.7885   24.8085  -75.4528 H         1 UNK         0.0784 
     95 H95       -71.3658   25.0078  -74.7029 H         1 UNK         0.0784 
     96 H96       -73.2631   25.1913  -76.2984 H         1 UNK         0.3213 
     97 H97       -75.1877   26.4058  -79.0284 H         1 UNK         0.0855 
     98 H98       -74.9395   24.0004  -79.5702 H         1 UNK         0.0814 
     99 H99       -76.4045   24.2575  -78.6339 H         1 UNK         0.0814 
    100 H100      -74.9706   23.5786  -77.8656 H         1 UNK         0.0814 
    101 H101      -75.9916   25.4804  -76.4705 H         1 UNK         0.3105 
    102 H102      -75.2706   28.4786  -74.6313 H         1 UNK         0.0547 
    103 H103      -77.6480   28.2655  -74.0345 H         1 UNK         0.0837 
    104 H104      -77.9319   27.2208  -75.4211 H         1 UNK         0.0837 
    105 H105      -77.4885   28.9039  -75.6630 H         1 UNK         0.0837 
    106 H106      -76.4200   25.9214  -73.9346 H         1 UNK         0.3020 
    107 H107      -73.2825   24.5331  -72.8867 H         1 UNK         0.1245 
    108 H108      -74.3711   26.0696  -71.0521 H         1 UNK         0.0781 
    109 H109      -74.1776   24.3717  -70.7569 H         1 UNK         0.0781 
    110 H110      -75.9579   26.3709  -69.1848 H         1 UNK         0.0836 
    111 H111      -77.6298   25.8861  -69.1576 H         1 UNK         0.0836 
    112 H112      -75.8995   23.4253  -72.9389 H         1 UNK         0.3022 
    113 H113      -75.7871   22.0473  -76.2122 H         1 UNK         0.0747 
    114 H114      -76.1170   19.9270  -74.9766 H         1 UNK         0.0793 
    115 H115      -74.4454   20.4444  -74.8424 H         1 UNK         0.0793 
    116 H116      -75.5385   20.6690  -73.4840 H         1 UNK         0.0793 
    117 H117      -77.7014   21.7482  -74.1508 H         1 UNK         0.3047 
    118 H118      -79.6383   22.6946  -74.2049 H         1 UNK         0.0822 
    119 H119      -79.0210   25.6758  -73.8787 H         1 UNK         0.0807 
    120 H120      -78.7536   24.4038  -72.6949 H         1 UNK         0.0807 
    121 H121      -80.3881   24.8434  -73.1491 H         1 UNK         0.0807 
    122 H122      -81.1359   23.2581  -75.6740 H         1 UNK         0.2946 
    123 H123      -81.6433   25.2960  -78.2157 H         1 UNK         0.1144 
    124 H124      -82.4450   23.0910  -77.4325 H         1 UNK         0.0793 
    125 H125      -83.1347   23.8010  -75.9760 H         1 UNK         0.0793 
    126 H126      -83.7906   24.2054  -77.5547 H         1 UNK         0.0793 
    127 H127      -82.4422   27.2033  -77.4048 H         1 UNK         0.2896 
@<TRIPOS>BOND
     1    1    2 1    
     2    1   67 1    
     3    1   68 1    
     4    1   69 1    
     5    2    3 2    
     6    2    4 am   BACKBONE|DICT|INTERRES
     7    4    5 1    
     8    4   70 1    
     9    5    6 1    
    10    5   65 1    
    11    5   71 1    
    12    6    7 1    
    13    6   72 1    
    14    6   73 1    
    15    7    8 1    
    16    8    9 1    
    17    8   74 1    
    18    8   75 1    
    19    9   10 ar   
    20    9   14 ar   
    21   10   11 ar   
    22   10   76 1    
    23   11   12 ar   
    24   11   48 1    
    25   12   13 ar   
    26   12   77 1    
    27   13   14 ar   
    28   13   15 1    
    29   14   78 1    
    30   15   16 1    
    31   15   79 1    
    32   15   80 1    
    33   16   17 1    
    34   17   18 1    
    35   17   81 1    
    36   17   82 1    
    37   18   19 1    
    38   18   22 1    
    39   18   83 1    
    40   19   20 am   BACKBONE|DICT|INTERRES
    41   19   21 2    
    42   20   84 1    
    43   20   85 1    
    44   22   23 am   BACKBONE|DICT|INTERRES
    45   22   86 1    
    46   23   24 2    
    47   23   25 1    
    48   25   26 1    
    49   25   27 1    
    50   25   87 1    
    51   26   88 1    
    52   26   89 1    
    53   26   90 1    
    54   27   28 am   BACKBONE|DICT|INTERRES
    55   27   91 1    
    56   28   29 2    
    57   28   30 1    
    58   30   31 1    
    59   30   32 1    
    60   30   92 1    
    61   31   93 1    
    62   31   94 1    
    63   31   95 1    
    64   32   33 am   BACKBONE|DICT|INTERRES
    65   32   96 1    
    66   33   34 2    
    67   33   35 1    
    68   35   36 1    
    69   35   37 1    
    70   35   97 1    
    71   36   98 1    
    72   36   99 1    
    73   36  100 1    
    74   37   38 am   BACKBONE|DICT|INTERRES
    75   37  101 1    
    76   38   39 2    
    77   38   40 1    
    78   40   41 1    
    79   40   42 1    
    80   40  102 1    
    81   41  103 1    
    82   41  104 1    
    83   41  105 1    
    84   42   43 am   BACKBONE|DICT|INTERRES
    85   42  106 1    
    86   43   44 2    
    87   43   45 1    
    88   45   46 1    
    89   45   49 1    
    90   45  107 1    
    91   46   47 1    
    92   46  108 1    
    93   46  109 1    
    94   47   48 1    
    95   48  110 1    
    96   48  111 1    
    97   49   50 am   BACKBONE|DICT|INTERRES
    98   49  112 1    
    99   50   51 2    
   100   50   52 1    
   101   52   53 1    
   102   52   54 1    
   103   52  113 1    
   104   53  114 1    
   105   53  115 1    
   106   53  116 1    
   107   54   55 am   BACKBONE|DICT|INTERRES
   108   54  117 1    
   109   55   56 2    
   110   55   57 1    
   111   57   58 1    
   112   57   59 1    
   113   57  118 1    
   114   58  119 1    
   115   58  120 1    
   116   58  121 1    
   117   59   60 am   BACKBONE|DICT|INTERRES
   118   59  122 1    
   119   60   61 2    
   120   60   62 1    
   121   62   63 1    
   122   62   64 1    
   123   62  123 1    
   124   63  124 1    
   125   63  125 1    
   126   63  126 1    
   127   64   65 am   BACKBONE|DICT|INTERRES
   128   64  127 1    
   129   65   66 2    
@<TRIPOS>SUBSTRUCTURE
     1 UNK         1 GROUP             0       ****    0 ROOT    
