@<TRIPOS>MOLECULE
3R135
127   129    1
SMALL
USER_CHARGES


@<TRIPOS>ATOM
      1 CA        -82.6423   29.5204  -78.0142 C.3       0 UNK        -0.1998 
      2 C         -83.4634   29.2914  -76.7472 C.2       0 UNK         0.4909 
      3 O         -84.6596   29.5758  -76.7496 O.2       0 UNK        -0.5240 
      4 N         -82.8862   28.7970  -75.6414 N.am      1 UNK        -0.4739 
      5 CA        -81.4942   28.3556  -75.4697 C.3       1 UNK         0.0864 
      6 C6        -81.1734   28.0852  -73.9764 C.3       11 UNK        -0.0881 
      7 S7        -80.9914   29.6525  -73.0648 S.3       11 UNK        -0.2682 
      8 C8        -80.6920   29.0769  -71.3623 C.3       11 UNK         0.0289 
      9 C9        -79.2497   28.6489  -71.1062 C.ar      11 UNK        -0.0687 
     10 C10       -78.9728   27.3606  -70.6362 C.ar      11 UNK        -0.0823 
     11 C11       -77.6665   26.9917  -70.2985 C.ar      11 UNK        -0.0830 
     12 C12       -76.6303   27.9140  -70.4543 C.ar      11 UNK        -0.1021 
     13 C13       -76.8827   29.1968  -70.9520 C.ar      11 UNK        -0.0753 
     14 C14       -78.1979   29.5604  -71.2649 C.ar      11 UNK        -0.0933 
     15 C15       -75.7446   30.2014  -71.1109 C.3       11 UNK         0.0166 
     16 S16       -74.3128   29.4866  -71.9805 S.3       11 UNK        -0.2615 
     17 C17       -73.1720   30.9054  -72.0596 C.3       11 UNK        -0.0865 
     18 CA        -71.8900   30.6144  -72.8879 C.3       10 UNK         0.0862 
     19 C         -70.8858   29.6825  -72.1453 C.2       10 UNK         0.5551 
     20 N         -70.4146   28.5962  -72.7457 N.am      10 UNK        -0.7319 
     21 O         -70.5097   29.9649  -71.0100 O.2       10 UNK        -0.5018 
     22 N         -72.2191   30.1951  -74.2609 N.am      10 UNK        -0.4509 
     23 C         -71.4729   30.4491  -75.3414 C.2       10 UNK         0.4899 
     24 O         -70.4141   31.0791  -75.3140 O.2       10 UNK        -0.4839 
     25 CA        -72.0236   29.9079  -76.6716 C.3       9 UNK         0.0222 
     26 CB        -71.2286   30.3953  -77.9025 C.3       9 UNK        -0.1966 
     27 N         -72.1580   28.4463  -76.6744 N.am      9 UNK        -0.4218 
     28 C         -71.1790   27.5294  -76.5899 C.2       9 UNK         0.5020 
     29 O         -69.9925   27.8162  -76.4262 O.2       9 UNK        -0.5274 
     30 CA        -71.5586   26.0360  -76.7127 C.3       8 UNK         0.0270 
     31 CB        -71.0933   25.2427  -75.4790 C.3       8 UNK        -0.1976 
     32 N         -72.9877   25.7928  -76.9258 N.am      8 UNK        -0.4313 
     33 C         -73.6512   25.9986  -78.0725 C.2       8 UNK         0.5041 
     34 O         -73.1067   26.3261  -79.1272 O.2       8 UNK        -0.5577 
     35 CA        -75.1872   25.8727  -78.0244 C.3       7 UNK         0.0284 
     36 CB        -75.6292   24.4742  -78.4799 C.3       7 UNK        -0.1958 
     37 N         -75.7578   26.1708  -76.7039 N.am      7 UNK        -0.4454 
     38 C         -75.6478   27.3534  -76.0794 C.2       7 UNK         0.5089 
     39 O         -75.0823   28.3326  -76.5663 O.2       7 UNK        -0.5125 
     40 CA        -76.2021   27.4475  -74.6530 C.3       6 UNK         0.0408 
     41 CB        -77.6918   27.7847  -74.6629 C.3       6 UNK        -0.1791 
     42 N         -75.9813   26.2226  -73.8860 N.am      6 UNK        -0.4762 
     43 C         -74.7932   25.8503  -73.3930 C.2       6 UNK         0.5007 
     44 O         -73.7632   26.5112  -73.5202 O.2       6 UNK        -0.5032 
     45 CA        -74.7284   24.4757  -72.6987 C.3       5 UNK         0.0783 
     46 C46       -75.2066   24.5347  -71.2223 C.3       11 UNK        -0.0857 
     47 S47       -77.0206   24.3923  -71.0141 S.3       11 UNK        -0.2512 
     48 C48       -77.3832   25.6144  -69.7189 C.3       11 UNK         0.0225 
     49 N         -75.4214   23.4342  -73.4623 N.am      5 UNK        -0.4615 
     50 C         -75.1189   23.0412  -74.7048 C.2       4 UNK         0.5053 
     51 O         -74.1514   23.4593  -75.3393 O.2       4 UNK        -0.5105 
     52 CA        -76.0803   22.0339  -75.3613 C.3       4 UNK         0.0263 
     53 CB        -75.6147   20.5956  -75.0853 C.3       4 UNK        -0.1981 
     54 N         -77.4830   22.1803  -74.9501 N.am      4 UNK        -0.4224 
     55 C         -78.2319   23.2798  -75.1204 C.2       3 UNK         0.4895 
     56 O         -77.8037   24.3372  -75.5896 O.2       3 UNK        -0.5091 
     57 CA        -79.6866   23.1863  -74.6251 C.3       3 UNK         0.0250 
     58 CB        -79.7712   23.5445  -73.1336 C.3       3 UNK        -0.1996 
     59 N         -80.5968   24.0624  -75.3631 N.am      3 UNK        -0.4254 
     60 C         -80.9517   23.9127  -76.6464 C.2       2 UNK         0.5004 
     61 O         -80.5639   22.9857  -77.3593 O.2       2 UNK        -0.5226 
     62 CA        -81.9357   24.9468  -77.2312 C.3       2 UNK         0.0269 
     63 CB        -83.3247   24.3168  -77.4298 C.3       2 UNK        -0.1926 
     64 N         -82.0810   26.1642  -76.4222 N.am      2 UNK        -0.4687 
     65 C         -81.1567   27.1316  -76.3443 C.2       1 UNK         0.5165 
     66 O         -80.0926   27.1041  -76.9600 O.2       1 UNK        -0.5079 
     67 H67       -83.1613   30.2095  -78.6803 H         1 UNK         0.0900 
     68 H68       -82.4992   28.5840  -78.5527 H         1 UNK         0.0900 
     69 H69       -81.6678   29.9549  -77.7962 H         1 UNK         0.0900 
     70 H70       -83.4626   28.7007  -74.8177 H         1 UNK         0.2959 
     71 H71       -80.8389   29.1606  -75.8089 H         1 UNK         0.1079 
     72 H72       -81.9597   27.4873  -73.5117 H         1 UNK         0.0837 
     73 H73       -80.2569   27.5115  -73.8511 H         1 UNK         0.0837 
     74 H74       -81.3902   28.2718  -71.1278 H         1 UNK         0.0685 
     75 H75       -80.9318   29.8923  -70.6786 H         1 UNK         0.0685 
     76 H76       -79.7786   26.6522  -70.5000 H         1 UNK         0.1434 
     77 H77       -75.6211   27.6356  -70.1849 H         1 UNK         0.1329 
     78 H78       -78.4104   30.5589  -71.6217 H         1 UNK         0.1335 
     79 H79       -76.0844   31.0813  -71.6594 H         1 UNK         0.0680 
     80 H80       -75.4327   30.5439  -70.1234 H         1 UNK         0.0680 
     81 H81       -73.7044   31.7475  -72.5045 H         1 UNK         0.1032 
     82 H82       -72.9189   31.2193  -71.0450 H         1 UNK         0.1032 
     83 H83       -71.3652   31.5688  -72.9624 H         1 UNK         0.0461 
     84 H84       -70.7030   28.3718  -73.6844 H         1 UNK         0.3453 
     85 H85       -69.7599   28.0052  -72.2592 H         1 UNK         0.3453 
     86 H86       -73.0555   29.6358  -74.3549 H         1 UNK         0.2984 
     87 H87       -73.0359   30.3035  -76.7678 H         1 UNK         0.0554 
     88 H88       -71.6725   30.0328  -78.8297 H         1 UNK         0.0847 
     89 H89       -70.1898   30.0648  -77.8768 H         1 UNK         0.0847 
     90 H90       -71.2191   31.4848  -77.9521 H         1 UNK         0.0847 
     91 H91       -73.1148   28.1160  -76.7590 H         1 UNK         0.3141 
     92 H92       -71.0214   25.6467  -77.5800 H         1 UNK         0.0743 
     93 H93       -70.0121   25.3125  -75.3531 H         1 UNK         0.0784 
     94 H94       -71.5500   25.6149  -74.5625 H         1 UNK         0.0784 
     95 H95       -71.3392   24.1845  -75.5704 H         1 UNK         0.0784 
     96 H96       -73.5128   25.4547  -76.1274 H         1 UNK         0.3213 
     97 H97       -75.5986   26.6039  -78.7234 H         1 UNK         0.0855 
     98 H98       -75.3656   24.3087  -79.5253 H         1 UNK         0.0814 
     99 H99       -76.7080   24.3424  -78.3905 H         1 UNK         0.0814 
    100 H100      -75.1406   23.6928  -77.8997 H         1 UNK         0.0814 
    101 H101      -76.2970   25.4373  -76.2509 H         1 UNK         0.3105 
    102 H102      -75.6839   28.2676  -74.1561 H         1 UNK         0.0547 
    103 H103      -78.0398   27.9917  -73.6526 H         1 UNK         0.0837 
    104 H104      -78.2800   26.9618  -75.0673 H         1 UNK         0.0837 
    105 H105      -77.8967   28.6696  -75.2668 H         1 UNK         0.0837 
    106 H106      -76.7670   25.5950  -73.7852 H         1 UNK         0.3020 
    107 H107      -73.6707   24.2016  -72.6867 H         1 UNK         0.1245 
    108 H108      -74.8362   25.4347  -70.7287 H         1 UNK         0.0781 
    109 H109      -74.7613   23.7035  -70.6736 H         1 UNK         0.0781 
    110 H110      -76.5614   25.6574  -69.0025 H         1 UNK         0.0836 
    111 H111      -78.2513   25.2711  -69.1542 H         1 UNK         0.0836 
    112 H112      -76.2404   23.0449  -73.0186 H         1 UNK         0.3022 
    113 H113      -76.0438   22.1974  -76.4386 H         1 UNK         0.0747 
    114 H114      -76.2219   19.8699  -75.6267 H         1 UNK         0.0793 
    115 H115      -74.5815   20.4522  -75.4054 H         1 UNK         0.0793 
    116 H116      -75.6634   20.3509  -74.0234 H         1 UNK         0.0793 
    117 H117      -77.9133   21.3646  -74.5378 H         1 UNK         0.3047 
    118 H118      -80.0331   22.1592  -74.7595 H         1 UNK         0.0822 
    119 H119      -79.1555   22.8733  -72.5338 H         1 UNK         0.0807 
    120 H120      -80.7917   23.4582  -72.7601 H         1 UNK         0.0807 
    121 H121      -79.4296   24.5631  -72.9429 H         1 UNK         0.0807 
    122 H122      -80.9587   24.8611  -74.8665 H         1 UNK         0.2946 
    123 H123      -81.5471   25.2309  -78.2122 H         1 UNK         0.1144 
    124 H124      -83.2651   23.4279  -78.0596 H         1 UNK         0.0793 
    125 H125      -84.0094   25.0106  -77.9180 H         1 UNK         0.0793 
    126 H126      -83.7703   24.0143  -76.4813 H         1 UNK         0.0793 
    127 H127      -82.9458   26.2760  -75.9114 H         1 UNK         0.2896 
@<TRIPOS>BOND
     1    1    2 1    
     2    1   67 1    
     3    1   68 1    
     4    1   69 1    
     5    2    3 2    
     6    2    4 am   BACKBONE|DICT|INTERRES
     7    4    5 1    
     8    4   70 1    
     9    5    6 1    
    10    5   65 1    
    11    5   71 1    
    12    6    7 1    
    13    6   72 1    
    14    6   73 1    
    15    7    8 1    
    16    8    9 1    
    17    8   74 1    
    18    8   75 1    
    19    9   10 ar   
    20    9   14 ar   
    21   10   11 ar   
    22   10   76 1    
    23   11   12 ar   
    24   11   48 1    
    25   12   13 ar   
    26   12   77 1    
    27   13   14 ar   
    28   13   15 1    
    29   14   78 1    
    30   15   16 1    
    31   15   79 1    
    32   15   80 1    
    33   16   17 1    
    34   17   18 1    
    35   17   81 1    
    36   17   82 1    
    37   18   19 1    
    38   18   22 1    
    39   18   83 1    
    40   19   20 am   BACKBONE|DICT|INTERRES
    41   19   21 2    
    42   20   84 1    
    43   20   85 1    
    44   22   23 am   BACKBONE|DICT|INTERRES
    45   22   86 1    
    46   23   24 2    
    47   23   25 1    
    48   25   26 1    
    49   25   27 1    
    50   25   87 1    
    51   26   88 1    
    52   26   89 1    
    53   26   90 1    
    54   27   28 am   BACKBONE|DICT|INTERRES
    55   27   91 1    
    56   28   29 2    
    57   28   30 1    
    58   30   31 1    
    59   30   32 1    
    60   30   92 1    
    61   31   93 1    
    62   31   94 1    
    63   31   95 1    
    64   32   33 am   BACKBONE|DICT|INTERRES
    65   32   96 1    
    66   33   34 2    
    67   33   35 1    
    68   35   36 1    
    69   35   37 1    
    70   35   97 1    
    71   36   98 1    
    72   36   99 1    
    73   36  100 1    
    74   37   38 am   BACKBONE|DICT|INTERRES
    75   37  101 1    
    76   38   39 2    
    77   38   40 1    
    78   40   41 1    
    79   40   42 1    
    80   40  102 1    
    81   41  103 1    
    82   41  104 1    
    83   41  105 1    
    84   42   43 am   BACKBONE|DICT|INTERRES
    85   42  106 1    
    86   43   44 2    
    87   43   45 1    
    88   45   46 1    
    89   45   49 1    
    90   45  107 1    
    91   46   47 1    
    92   46  108 1    
    93   46  109 1    
    94   47   48 1    
    95   48  110 1    
    96   48  111 1    
    97   49   50 am   BACKBONE|DICT|INTERRES
    98   49  112 1    
    99   50   51 2    
   100   50   52 1    
   101   52   53 1    
   102   52   54 1    
   103   52  113 1    
   104   53  114 1    
   105   53  115 1    
   106   53  116 1    
   107   54   55 am   BACKBONE|DICT|INTERRES
   108   54  117 1    
   109   55   56 2    
   110   55   57 1    
   111   57   58 1    
   112   57   59 1    
   113   57  118 1    
   114   58  119 1    
   115   58  120 1    
   116   58  121 1    
   117   59   60 am   BACKBONE|DICT|INTERRES
   118   59  122 1    
   119   60   61 2    
   120   60   62 1    
   121   62   63 1    
   122   62   64 1    
   123   62  123 1    
   124   63  124 1    
   125   63  125 1    
   126   63  126 1    
   127   64   65 am   BACKBONE|DICT|INTERRES
   128   64  127 1    
   129   65   66 2    
@<TRIPOS>SUBSTRUCTURE
     1 UNK         1 GROUP             0       ****    0 ROOT    
