@<TRIPOS>MOLECULE
3R135
127   129    1
SMALL
USER_CHARGES


@<TRIPOS>ATOM
      1 CA        -76.2687   27.5692  -74.7860 C.3       0 UNK        -0.1998 
      2 C         -76.7139   28.9919  -75.1122 C.2       0 UNK         0.4909 
      3 O         -76.0137   29.6895  -75.8426 O.2       0 UNK        -0.5240 
      4 N         -77.8466   29.4786  -74.5913 N.am      1 UNK        -0.4739 
      5 CA        -78.8459   28.7342  -73.8180 C.3       1 UNK         0.0864 
      6 C6        -79.7424   29.6692  -72.9662 C.3       11 UNK        -0.0881 
      7 S7        -78.8019   30.7896  -71.8731 S.3       11 UNK        -0.2682 
      8 C8        -78.6679   29.8124  -70.3410 C.3       11 UNK         0.0289 
      9 C9        -77.6636   28.6773  -70.4802 C.ar      11 UNK        -0.0687 
     10 C10       -78.0793   27.3443  -70.4168 C.ar      11 UNK        -0.0823 
     11 C11       -77.1521   26.3065  -70.5530 C.ar      11 UNK        -0.0830 
     12 C12       -75.8028   26.6106  -70.7640 C.ar      11 UNK        -0.1021 
     13 C13       -75.3711   27.9403  -70.8163 C.ar      11 UNK        -0.0753 
     14 C14       -76.3084   28.9658  -70.6612 C.ar      11 UNK        -0.0933 
     15 C15       -73.8890   28.2573  -70.9889 C.3       11 UNK         0.0166 
     16 S16       -73.5133   29.1071  -72.5592 S.3       11 UNK        -0.2615 
     17 C17       -73.7375   30.8672  -72.1199 C.3       11 UNK        -0.0865 
     18 CA        -74.8254   31.5525  -73.0012 C.3       10 UNK         0.0862 
     19 C         -75.3555   32.9148  -72.4492 C.2       10 UNK         0.5551 
     20 N         -75.3502   33.1352  -71.1403 N.am      10 UNK        -0.7319 
     21 O         -75.8314   33.7664  -73.1986 O.2       10 UNK        -0.5018 
     22 N         -74.4234   31.6222  -74.4181 N.am      10 UNK        -0.4509 
     23 C         -73.4488   32.3915  -74.9248 C.2       10 UNK         0.4899 
     24 O         -72.7197   33.1140  -74.2417 O.2       10 UNK        -0.4839 
     25 CA        -73.2724   32.3653  -76.4579 C.3       9 UNK         0.0222 
     26 CB        -71.9362   32.9854  -76.9221 C.3       9 UNK        -0.1966 
     27 N         -73.4646   31.0383  -77.0566 N.am      9 UNK        -0.4218 
     28 C         -72.7609   29.9227  -76.8129 C.2       9 UNK         0.5020 
     29 O         -71.8165   29.8615  -76.0240 O.2       9 UNK        -0.5274 
     30 CA        -73.1790   28.6941  -77.6440 C.3       8 UNK         0.0270 
     31 CB        -72.3468   28.5842  -78.9375 C.3       8 UNK        -0.1976 
     32 N         -73.1764   27.4365  -76.8867 N.am      8 UNK        -0.4313 
     33 C         -72.1468   26.7275  -76.3991 C.2       8 UNK         0.5041 
     34 O         -70.9568   26.9918  -76.5767 O.2       8 UNK        -0.5577 
     35 CA        -72.5118   25.4718  -75.5832 C.3       7 UNK         0.0284 
     36 CB        -72.4978   25.7732  -74.0756 C.3       7 UNK        -0.1958 
     37 N         -73.8073   24.8805  -75.9372 N.am      7 UNK        -0.4454 
     38 C         -74.0680   24.2298  -77.0794 C.2       7 UNK         0.5089 
     39 O         -73.2504   24.1219  -77.9943 O.2       7 UNK        -0.5125 
     40 CA        -75.4710   23.6015  -77.2425 C.3       6 UNK         0.0408 
     41 CB        -75.3942   22.2249  -77.9352 C.3       6 UNK        -0.1791 
     42 N         -76.2772   23.5100  -76.0134 N.am      6 UNK        -0.4762 
     43 C         -75.9904   22.8283  -74.8902 C.2       6 UNK         0.5007 
     44 O         -74.9377   22.2216  -74.6948 O.2       6 UNK        -0.5032 
     45 CA        -77.0832   22.8252  -73.8091 C.3       5 UNK         0.0783 
     46 C46       -77.2137   24.2286  -73.1633 C.3       11 UNK        -0.0857 
     47 S47       -78.5309   24.3167  -71.9071 S.3       11 UNK        -0.2512 
     48 C48       -77.6077   24.8583  -70.4370 C.3       11 UNK         0.0225 
     49 N         -78.3349   22.3433  -74.3974 N.am      5 UNK        -0.4615 
     50 C         -78.6389   21.0506  -74.5837 C.2       4 UNK         0.5053 
     51 O         -77.9224   20.1216  -74.2105 O.2       4 UNK        -0.5105 
     52 CA        -79.9661   20.7260  -75.2962 C.3       4 UNK         0.0263 
     53 CB        -81.0631   20.4177  -74.2641 C.3       4 UNK        -0.1981 
     54 N         -80.4242   21.8060  -76.1711 N.am      4 UNK        -0.4224 
     55 C         -79.8694   22.1293  -77.3487 C.2       3 UNK         0.4895 
     56 O         -78.9968   21.4605  -77.9005 O.2       3 UNK        -0.5091 
     57 CA        -80.3488   23.4377  -78.0087 C.3       3 UNK         0.0250 
     58 CB        -81.3918   23.1414  -79.0984 C.3       3 UNK        -0.1996 
     59 N         -80.9049   24.4040  -77.0520 N.am      3 UNK        -0.4254 
     60 C         -80.2032   24.9889  -76.0715 C.2       2 UNK         0.5004 
     61 O         -78.9917   24.8191  -75.9058 O.2       2 UNK        -0.5226 
     62 CA        -81.0170   25.8055  -75.0545 C.3       2 UNK         0.0269 
     63 CB        -81.7376   24.8647  -74.0730 C.3       2 UNK        -0.1926 
     64 N         -80.1740   26.7245  -74.2875 N.am      2 UNK        -0.4687 
     65 C         -79.7153   27.8862  -74.7670 C.2       1 UNK         0.5165 
     66 O         -79.9878   28.3125  -75.8926 O.2       1 UNK        -0.5079 
     67 H67       -76.3314   27.3608  -73.7188 H         1 UNK         0.0900 
     68 H68       -75.2270   27.4350  -75.0649 H         1 UNK         0.0900 
     69 H69       -76.8681   26.8439  -75.3356 H         1 UNK         0.0900 
     70 H70       -78.1170   30.4211  -74.8302 H         1 UNK         0.2959 
     71 H71       -78.3352   28.0588  -73.1330 H         1 UNK         0.1079 
     72 H72       -80.3614   30.2941  -73.6134 H         1 UNK         0.0837 
     73 H73       -80.4387   29.0866  -72.3597 H         1 UNK         0.0837 
     74 H74       -78.3451   30.4712  -69.5337 H         1 UNK         0.0685 
     75 H75       -79.6526   29.4391  -70.0557 H         1 UNK         0.0685 
     76 H76       -79.1233   27.1104  -70.2579 H         1 UNK         0.1434 
     77 H77       -75.0829   25.8098  -70.8643 H         1 UNK         0.1329 
     78 H78       -75.9943   29.9974  -70.6858 H         1 UNK         0.1335 
     79 H79       -73.3056   27.3355  -70.9665 H         1 UNK         0.0680 
     80 H80       -73.5370   28.8488  -70.1430 H         1 UNK         0.0680 
     81 H81       -72.7787   31.3760  -72.2271 H         1 UNK         0.1032 
     82 H82       -73.9746   30.9306  -71.0595 H         1 UNK         0.1032 
     83 H83       -75.7060   30.9103  -72.9887 H         1 UNK         0.0461 
     84 H84       -74.9874   32.4606  -70.4879 H         1 UNK         0.3453 
     85 H85       -75.7172   34.0093  -70.7979 H         1 UNK         0.3453 
     86 H86       -74.9645   31.0394  -75.0518 H         1 UNK         0.2984 
     87 H87       -74.0735   32.9897  -76.8559 H         1 UNK         0.0554 
     88 H88       -71.8512   34.0229  -76.5966 H         1 UNK         0.0847 
     89 H89       -71.8519   32.9815  -78.0088 H         1 UNK         0.0847 
     90 H90       -71.0787   32.4472  -76.5169 H         1 UNK         0.0847 
     91 H91       -74.2464   30.9661  -77.6937 H         1 UNK         0.3141 
     92 H92       -74.2200   28.8373  -77.9395 H         1 UNK         0.0743 
     93 H93       -72.6499   27.7235  -79.5338 H         1 UNK         0.0784 
     94 H94       -71.2807   28.4900  -78.7287 H         1 UNK         0.0784 
     95 H95       -72.4744   29.4718  -79.5584 H         1 UNK         0.0784 
     96 H96       -74.0945   27.0820  -76.6677 H         1 UNK         0.3213 
     97 H97       -71.7391   24.7260  -75.7837 H         1 UNK         0.0855 
     98 H98       -73.3080   26.4432  -73.7900 H         1 UNK         0.0814 
     99 H99       -71.5622   26.2497  -73.7788 H         1 UNK         0.0814 
    100 H100      -72.5957   24.8602  -73.4879 H         1 UNK         0.0814 
    101 H101      -74.5233   24.8800  -75.2274 H         1 UNK         0.3105 
    102 H102      -76.0209   24.2712  -77.9052 H         1 UNK         0.0547 
    103 H103      -74.9337   22.3034  -78.9207 H         1 UNK         0.0837 
    104 H104      -74.8036   21.5138  -77.3570 H         1 UNK         0.0837 
    105 H105      -76.3847   21.7963  -78.0799 H         1 UNK         0.0837 
    106 H106      -77.1795   23.9790  -76.0536 H         1 UNK         0.3020 
    107 H107      -76.7729   22.1266  -73.0281 H         1 UNK         0.1245 
    108 H108      -76.2624   24.5168  -72.7139 H         1 UNK         0.0781 
    109 H109      -77.4318   24.9919  -73.9083 H         1 UNK         0.0781 
    110 H110      -76.7607   24.1907  -70.2708 H         1 UNK         0.0836 
    111 H111      -78.2502   24.7541  -69.5615 H         1 UNK         0.0836 
    112 H112      -78.9425   23.0576  -74.7757 H         1 UNK         0.3022 
    113 H113      -79.8054   19.8336  -75.9051 H         1 UNK         0.0747 
    114 H114      -81.9944   20.1246  -74.7492 H         1 UNK         0.0793 
    115 H115      -80.7655   19.5937  -73.6139 H         1 UNK         0.0793 
    116 H116      -81.2712   21.2771  -73.6252 H         1 UNK         0.0793 
    117 H117      -81.1642   22.3930  -75.8173 H         1 UNK         0.3047 
    118 H118      -79.4784   23.8986  -78.4812 H         1 UNK         0.0822 
    119 H119      -81.6787   24.0484  -79.6309 H         1 UNK         0.0807 
    120 H120      -82.2956   22.6937  -78.6833 H         1 UNK         0.0807 
    121 H121      -80.9946   22.4458  -79.8392 H         1 UNK         0.0807 
    122 H122      -81.8959   24.5881  -77.1229 H         1 UNK         0.2946 
    123 H123      -81.7657   26.3872  -75.5981 H         1 UNK         0.1144 
    124 H124      -82.3001   25.4264  -73.3268 H         1 UNK         0.0793 
    125 H125      -81.0397   24.2151  -73.5439 H         1 UNK         0.0793 
    126 H126      -82.4512   24.2226  -74.5906 H         1 UNK         0.0793 
    127 H127      -79.8882   26.4112  -73.3707 H         1 UNK         0.2896 
@<TRIPOS>BOND
     1    1    2 1    
     2    1   67 1    
     3    1   68 1    
     4    1   69 1    
     5    2    3 2    
     6    2    4 am   BACKBONE|DICT|INTERRES
     7    4    5 1    
     8    4   70 1    
     9    5    6 1    
    10    5   65 1    
    11    5   71 1    
    12    6    7 1    
    13    6   72 1    
    14    6   73 1    
    15    7    8 1    
    16    8    9 1    
    17    8   74 1    
    18    8   75 1    
    19    9   10 ar   
    20    9   14 ar   
    21   10   11 ar   
    22   10   76 1    
    23   11   12 ar   
    24   11   48 1    
    25   12   13 ar   
    26   12   77 1    
    27   13   14 ar   
    28   13   15 1    
    29   14   78 1    
    30   15   16 1    
    31   15   79 1    
    32   15   80 1    
    33   16   17 1    
    34   17   18 1    
    35   17   81 1    
    36   17   82 1    
    37   18   19 1    
    38   18   22 1    
    39   18   83 1    
    40   19   20 am   BACKBONE|DICT|INTERRES
    41   19   21 2    
    42   20   84 1    
    43   20   85 1    
    44   22   23 am   BACKBONE|DICT|INTERRES
    45   22   86 1    
    46   23   24 2    
    47   23   25 1    
    48   25   26 1    
    49   25   27 1    
    50   25   87 1    
    51   26   88 1    
    52   26   89 1    
    53   26   90 1    
    54   27   28 am   BACKBONE|DICT|INTERRES
    55   27   91 1    
    56   28   29 2    
    57   28   30 1    
    58   30   31 1    
    59   30   32 1    
    60   30   92 1    
    61   31   93 1    
    62   31   94 1    
    63   31   95 1    
    64   32   33 am   BACKBONE|DICT|INTERRES
    65   32   96 1    
    66   33   34 2    
    67   33   35 1    
    68   35   36 1    
    69   35   37 1    
    70   35   97 1    
    71   36   98 1    
    72   36   99 1    
    73   36  100 1    
    74   37   38 am   BACKBONE|DICT|INTERRES
    75   37  101 1    
    76   38   39 2    
    77   38   40 1    
    78   40   41 1    
    79   40   42 1    
    80   40  102 1    
    81   41  103 1    
    82   41  104 1    
    83   41  105 1    
    84   42   43 am   BACKBONE|DICT|INTERRES
    85   42  106 1    
    86   43   44 2    
    87   43   45 1    
    88   45   46 1    
    89   45   49 1    
    90   45  107 1    
    91   46   47 1    
    92   46  108 1    
    93   46  109 1    
    94   47   48 1    
    95   48  110 1    
    96   48  111 1    
    97   49   50 am   BACKBONE|DICT|INTERRES
    98   49  112 1    
    99   50   51 2    
   100   50   52 1    
   101   52   53 1    
   102   52   54 1    
   103   52  113 1    
   104   53  114 1    
   105   53  115 1    
   106   53  116 1    
   107   54   55 am   BACKBONE|DICT|INTERRES
   108   54  117 1    
   109   55   56 2    
   110   55   57 1    
   111   57   58 1    
   112   57   59 1    
   113   57  118 1    
   114   58  119 1    
   115   58  120 1    
   116   58  121 1    
   117   59   60 am   BACKBONE|DICT|INTERRES
   118   59  122 1    
   119   60   61 2    
   120   60   62 1    
   121   62   63 1    
   122   62   64 1    
   123   62  123 1    
   124   63  124 1    
   125   63  125 1    
   126   63  126 1    
   127   64   65 am   BACKBONE|DICT|INTERRES
   128   64  127 1    
   129   65   66 2    
@<TRIPOS>SUBSTRUCTURE
     1 UNK         1 GROUP             0       ****    0 ROOT    
