@<TRIPOS>MOLECULE
3R135
127   129    1
SMALL
USER_CHARGES


@<TRIPOS>ATOM
      1 CA        -83.8064   25.7847  -73.6371 C.3       0 UNK        -0.1998 
      2 C         -82.7445   26.4967  -74.4604 C.2       0 UNK         0.4909 
      3 O         -82.8942   26.6177  -75.6773 O.2       0 UNK        -0.5240 
      4 N         -81.6693   26.9619  -73.8083 N.am      1 UNK        -0.4739 
      5 CA        -80.5071   27.6104  -74.4296 C.3       1 UNK         0.0864 
      6 C6        -79.4350   27.9930  -73.3829 C.3       11 UNK        -0.0881 
      7 S7        -80.0023   29.2464  -72.1875 S.3       11 UNK        -0.2682 
      8 C8        -79.1436   28.7197  -70.6654 C.3       11 UNK         0.0289 
      9 C9        -77.6502   28.5014  -70.8830 C.ar      11 UNK        -0.0687 
     10 C10       -77.1102   27.2144  -70.7997 C.ar      11 UNK        -0.0823 
     11 C11       -75.7490   26.9982  -71.0305 C.ar      11 UNK        -0.0830 
     12 C12       -74.9266   28.0817  -71.3525 C.ar      11 UNK        -0.1021 
     13 C13       -75.4469   29.3809  -71.4117 C.ar      11 UNK        -0.0753 
     14 C14       -76.8113   29.5808  -71.1764 C.ar      11 UNK        -0.0933 
     15 C15       -74.5597   30.5703  -71.7662 C.3       11 UNK         0.0166 
     16 S16       -72.9622   30.5574  -70.8867 S.3       11 UNK        -0.2615 
     17 C17       -72.1924   32.1145  -71.4617 C.3       11 UNK        -0.0865 
     18 CA        -71.3199   31.9867  -72.7401 C.3       10 UNK         0.0862 
     19 C         -70.1050   31.0328  -72.5486 C.2       10 UNK         0.5551 
     20 N         -70.1275   29.8163  -73.0820 N.am      10 UNK        -0.7319 
     21 O         -69.1209   31.4140  -71.9195 O.2       10 UNK        -0.5018 
     22 N         -72.1403   31.6905  -73.9209 N.am      10 UNK        -0.4509 
     23 C         -71.8116   31.9876  -75.1859 C.2       10 UNK         0.4899 
     24 O         -70.7974   32.6124  -75.4993 O.2       10 UNK        -0.4839 
     25 CA        -72.7802   31.5003  -76.2792 C.3       9 UNK         0.0222 
     26 CB        -72.0897   31.2758  -77.6379 C.3       9 UNK        -0.1966 
     27 N         -73.4287   30.2668  -75.8450 N.am      9 UNK        -0.4218 
     28 C         -74.6875   29.8851  -76.0603 C.2       9 UNK         0.5020 
     29 O         -75.4813   30.5285  -76.7490 O.2       9 UNK        -0.5274 
     30 CA        -75.1354   28.5722  -75.3719 C.3       8 UNK         0.0270 
     31 CB        -76.4518   28.0352  -75.9586 C.3       8 UNK        -0.1976 
     32 N         -74.1440   27.4854  -75.3827 N.am      8 UNK        -0.4313 
     33 C         -72.9535   27.4507  -74.7642 C.2       8 UNK         0.5041 
     34 O         -72.5014   28.3973  -74.1143 O.2       8 UNK        -0.5577 
     35 CA        -72.1102   26.1703  -74.9087 C.3       7 UNK         0.0284 
     36 CB        -71.3630   25.8401  -73.6033 C.3       7 UNK        -0.1958 
     37 N         -72.9099   25.0086  -75.3089 N.am      7 UNK        -0.4454 
     38 C         -73.0789   24.5713  -76.5645 C.2       7 UNK         0.5089 
     39 O         -72.5900   25.1227  -77.5500 O.2       7 UNK        -0.5125 
     40 CA        -73.9448   23.3113  -76.7587 C.3       6 UNK         0.0408 
     41 CB        -73.0511   22.0743  -76.9417 C.3       6 UNK        -0.1791 
     42 N         -74.8694   23.0765  -75.6447 N.am      6 UNK        -0.4762 
     43 C         -76.0148   23.7480  -75.4626 C.2       6 UNK         0.5007 
     44 O         -76.4449   24.5889  -76.2539 O.2       6 UNK        -0.5032 
     45 CA        -76.7690   23.4782  -74.1495 C.3       5 UNK         0.0783 
     46 C46       -76.5993   24.6504  -73.1513 C.3       11 UNK        -0.0857 
     47 S47       -74.8950   24.8137  -72.5242 S.3       11 UNK        -0.2512 
     48 C48       -75.1631   25.5984  -70.9056 C.3       11 UNK         0.0225 
     49 N         -78.1826   23.2774  -74.4517 N.am      5 UNK        -0.4615 
     50 C         -78.8463   22.1226  -74.3435 C.2       4 UNK         0.5053 
     51 O         -78.3146   21.0560  -74.0337 O.2       4 UNK        -0.5105 
     52 CA        -80.3610   22.1562  -74.5958 C.3       4 UNK         0.0263 
     53 CB        -81.0957   22.6818  -73.3501 C.3       4 UNK        -0.1981 
     54 N         -80.7210   22.9920  -75.7437 N.am      4 UNK        -0.4224 
     55 C         -81.3921   22.5628  -76.8232 C.2       3 UNK         0.4895 
     56 O         -81.7217   21.3889  -76.9992 O.2       3 UNK        -0.5091 
     57 CA        -81.8037   23.6042  -77.8833 C.3       3 UNK         0.0250 
     58 CB        -83.3151   23.8768  -77.8051 C.3       3 UNK        -0.1996 
     59 N         -81.0832   24.8729  -77.7621 N.am      3 UNK        -0.4254 
     60 C         -79.8302   25.0697  -78.1976 C.2       2 UNK         0.5004 
     61 O         -79.1972   24.2316  -78.8403 O.2       2 UNK        -0.5226 
     62 CA        -79.1547   26.4122  -77.8517 C.3       2 UNK         0.0269 
     63 CB        -79.1030   27.3277  -79.0855 C.3       2 UNK        -0.1926 
     64 N         -79.7592   27.1501  -76.7335 N.am      2 UNK        -0.4687 
     65 C         -79.8710   26.6856  -75.4822 C.2       1 UNK         0.5165 
     66 O         -79.5155   25.5576  -75.1405 O.2       1 UNK        -0.5079 
     67 H67       -84.7619   26.2998  -73.7315 H         1 UNK         0.0900 
     68 H68       -83.9325   24.7629  -73.9943 H         1 UNK         0.0900 
     69 H69       -83.5442   25.7445  -72.5801 H         1 UNK         0.0900 
     70 H70       -81.6073   26.8402  -72.8081 H         1 UNK         0.2959 
     71 H71       -80.8580   28.5185  -74.9241 H         1 UNK         0.1079 
     72 H72       -78.5431   28.3966  -73.8655 H         1 UNK         0.0837 
     73 H73       -79.1096   27.0999  -72.8458 H         1 UNK         0.0837 
     74 H74       -79.6173   27.8105  -70.2918 H         1 UNK         0.0685 
     75 H75       -79.2886   29.4788  -69.8955 H         1 UNK         0.0685 
     76 H76       -77.7516   26.3775  -70.5598 H         1 UNK         0.1434 
     77 H77       -73.8764   27.9133  -71.5507 H         1 UNK         0.1329 
     78 H78       -77.2310   30.5756  -71.2393 H         1 UNK         0.1335 
     79 H79       -74.3865   30.5557  -72.8408 H         1 UNK         0.0680 
     80 H80       -75.0721   31.5073  -71.5419 H         1 UNK         0.0680 
     81 H81       -72.9691   32.8653  -71.6152 H         1 UNK         0.1032 
     82 H82       -71.5822   32.5013  -70.6435 H         1 UNK         0.1032 
     83 H83       -70.8867   32.9755  -72.9048 H         1 UNK         0.0461 
     84 H84       -69.3313   29.2129  -72.9582 H         1 UNK         0.3453 
     85 H85       -70.9702   29.4563  -73.5184 H         1 UNK         0.3453 
     86 H86       -72.9712   31.1467  -73.7499 H         1 UNK         0.2984 
     87 H87       -73.5342   32.2811  -76.3961 H         1 UNK         0.0554 
     88 H88       -71.6377   32.1972  -78.0071 H         1 UNK         0.0847 
     89 H89       -72.8009   30.9415  -78.3933 H         1 UNK         0.0847 
     90 H90       -71.2994   30.5276  -77.5667 H         1 UNK         0.0847 
     91 H91       -72.8750   29.6547  -75.2427 H         1 UNK         0.3141 
     92 H92       -75.3241   28.8224  -74.3269 H         1 UNK         0.0743 
     93 H93       -76.3337   27.7470  -77.0036 H         1 UNK         0.0784 
     94 H94       -76.8051   27.1643  -75.4079 H         1 UNK         0.0784 
     95 H95       -77.2427   28.7847  -75.9146 H         1 UNK         0.0784 
     96 H96       -74.4039   26.6659  -75.9122 H         1 UNK         0.3213 
     97 H97       -71.3601   26.3757  -75.6753 H         1 UNK         0.0855 
     98 H98       -72.0480   25.7083  -72.7657 H         1 UNK         0.0814 
     99 H99       -70.6739   26.6412  -73.3327 H         1 UNK         0.0814 
    100 H100      -70.7720   24.9296  -73.7023 H         1 UNK         0.0814 
    101 H101      -73.3910   24.5224  -74.5641 H         1 UNK         0.3105 
    102 H102      -74.5255   23.4471  -77.6739 H         1 UNK         0.0547 
    103 H103      -73.6440   21.1822  -77.1443 H         1 UNK         0.0837 
    104 H104      -72.4406   21.8800  -76.0590 H         1 UNK         0.0837 
    105 H105      -72.3709   22.2062  -77.7844 H         1 UNK         0.0837 
    106 H106      -74.5806   22.3977  -74.9538 H         1 UNK         0.3020 
    107 H107      -76.3614   22.5762  -73.6873 H         1 UNK         0.1245 
    108 H108      -77.2602   24.4916  -72.2979 H         1 UNK         0.0781 
    109 H109      -76.9069   25.5992  -73.5950 H         1 UNK         0.0781 
    110 H110      -74.2078   25.6532  -70.3815 H         1 UNK         0.0836 
    111 H111      -75.8052   24.9615  -70.2951 H         1 UNK         0.0836 
    112 H112      -78.6775   24.1177  -74.7507 H         1 UNK         0.3022 
    113 H113      -80.6780   21.1242  -74.7599 H         1 UNK         0.0747 
    114 H114      -82.1769   22.6284  -73.4783 H         1 UNK         0.0793 
    115 H115      -80.8445   22.0909  -72.4682 H         1 UNK         0.0793 
    116 H116      -80.8360   23.7194  -73.1348 H         1 UNK         0.0793 
    117 H117      -80.4435   23.9676  -75.6934 H         1 UNK         0.3047 
    118 H118      -81.5899   23.1728  -78.8637 H         1 UNK         0.0822 
    119 H119      -83.6308   24.5917  -78.5651 H         1 UNK         0.0807 
    120 H120      -83.6051   24.2718  -76.8310 H         1 UNK         0.0807 
    121 H121      -83.8856   22.9611  -77.9662 H         1 UNK         0.0807 
    122 H122      -81.5411   25.6102  -77.2388 H         1 UNK         0.2946 
    123 H123      -78.1301   26.1684  -77.5648 H         1 UNK         0.1144 
    124 H124      -78.5225   28.2290  -78.8869 H         1 UNK         0.0793 
    125 H125      -80.1010   27.6310  -79.4042 H         1 UNK         0.0793 
    126 H126      -78.6309   26.8215  -79.9288 H         1 UNK         0.0793 
    127 H127      -80.1067   28.0748  -76.9445 H         1 UNK         0.2896 
@<TRIPOS>BOND
     1    1    2 1    
     2    1   67 1    
     3    1   68 1    
     4    1   69 1    
     5    2    3 2    
     6    2    4 am   BACKBONE|DICT|INTERRES
     7    4    5 1    
     8    4   70 1    
     9    5    6 1    
    10    5   65 1    
    11    5   71 1    
    12    6    7 1    
    13    6   72 1    
    14    6   73 1    
    15    7    8 1    
    16    8    9 1    
    17    8   74 1    
    18    8   75 1    
    19    9   10 ar   
    20    9   14 ar   
    21   10   11 ar   
    22   10   76 1    
    23   11   12 ar   
    24   11   48 1    
    25   12   13 ar   
    26   12   77 1    
    27   13   14 ar   
    28   13   15 1    
    29   14   78 1    
    30   15   16 1    
    31   15   79 1    
    32   15   80 1    
    33   16   17 1    
    34   17   18 1    
    35   17   81 1    
    36   17   82 1    
    37   18   19 1    
    38   18   22 1    
    39   18   83 1    
    40   19   20 am   BACKBONE|DICT|INTERRES
    41   19   21 2    
    42   20   84 1    
    43   20   85 1    
    44   22   23 am   BACKBONE|DICT|INTERRES
    45   22   86 1    
    46   23   24 2    
    47   23   25 1    
    48   25   26 1    
    49   25   27 1    
    50   25   87 1    
    51   26   88 1    
    52   26   89 1    
    53   26   90 1    
    54   27   28 am   BACKBONE|DICT|INTERRES
    55   27   91 1    
    56   28   29 2    
    57   28   30 1    
    58   30   31 1    
    59   30   32 1    
    60   30   92 1    
    61   31   93 1    
    62   31   94 1    
    63   31   95 1    
    64   32   33 am   BACKBONE|DICT|INTERRES
    65   32   96 1    
    66   33   34 2    
    67   33   35 1    
    68   35   36 1    
    69   35   37 1    
    70   35   97 1    
    71   36   98 1    
    72   36   99 1    
    73   36  100 1    
    74   37   38 am   BACKBONE|DICT|INTERRES
    75   37  101 1    
    76   38   39 2    
    77   38   40 1    
    78   40   41 1    
    79   40   42 1    
    80   40  102 1    
    81   41  103 1    
    82   41  104 1    
    83   41  105 1    
    84   42   43 am   BACKBONE|DICT|INTERRES
    85   42  106 1    
    86   43   44 2    
    87   43   45 1    
    88   45   46 1    
    89   45   49 1    
    90   45  107 1    
    91   46   47 1    
    92   46  108 1    
    93   46  109 1    
    94   47   48 1    
    95   48  110 1    
    96   48  111 1    
    97   49   50 am   BACKBONE|DICT|INTERRES
    98   49  112 1    
    99   50   51 2    
   100   50   52 1    
   101   52   53 1    
   102   52   54 1    
   103   52  113 1    
   104   53  114 1    
   105   53  115 1    
   106   53  116 1    
   107   54   55 am   BACKBONE|DICT|INTERRES
   108   54  117 1    
   109   55   56 2    
   110   55   57 1    
   111   57   58 1    
   112   57   59 1    
   113   57  118 1    
   114   58  119 1    
   115   58  120 1    
   116   58  121 1    
   117   59   60 am   BACKBONE|DICT|INTERRES
   118   59  122 1    
   119   60   61 2    
   120   60   62 1    
   121   62   63 1    
   122   62   64 1    
   123   62  123 1    
   124   63  124 1    
   125   63  125 1    
   126   63  126 1    
   127   64   65 am   BACKBONE|DICT|INTERRES
   128   64  127 1    
   129   65   66 2    
@<TRIPOS>SUBSTRUCTURE
     1 UNK         1 GROUP             0       ****    0 ROOT    
