@<TRIPOS>MOLECULE
3R135
127   129    1
SMALL
USER_CHARGES


@<TRIPOS>ATOM
      1 CA        -84.7827   29.6934  -73.7749 C.3       0 UNK        -0.1998 
      2 C         -83.5205   28.9300  -74.1454 C.2       0 UNK         0.4909 
      3 O         -82.9668   29.1443  -75.2252 O.2       0 UNK        -0.5240 
      4 N         -83.0588   28.0353  -73.2627 N.am      1 UNK        -0.4739 
      5 CA        -81.8644   27.2039  -73.4481 C.3       1 UNK         0.0864 
      6 C6        -81.2360   26.7749  -72.0945 C.3       11 UNK        -0.0881 
      7 S7        -80.8123   28.1905  -71.0194 S.3       11 UNK        -0.2682 
      8 C8        -79.0763   27.8333  -70.5647 C.3       11 UNK         0.0289 
      9 C9        -78.0092   28.1762  -71.6088 C.ar      11 UNK        -0.0687 
     10 C10       -78.3141   28.6640  -72.8867 C.ar      11 UNK        -0.0823 
     11 C11       -77.3016   28.9385  -73.8096 C.ar      11 UNK        -0.0830 
     12 C12       -75.9659   28.7702  -73.4374 C.ar      11 UNK        -0.1021 
     13 C13       -75.6419   28.3035  -72.1618 C.ar      11 UNK        -0.0753 
     14 C14       -76.6656   27.9967  -71.2605 C.ar      11 UNK        -0.0933 
     15 C15       -74.1859   28.1420  -71.7583 C.3       11 UNK         0.0166 
     16 S16       -73.6116   29.6031  -70.8422 S.3       11 UNK        -0.2615 
     17 C17       -71.7991   29.4127  -70.9454 C.3       11 UNK        -0.0865 
     18 CA        -71.1824   30.3496  -72.0201 C.3       10 UNK         0.0862 
     19 C         -69.6304   30.4314  -71.9092 C.2       10 UNK         0.5551 
     20 N         -68.8702   30.3378  -72.9944 N.am      10 UNK        -0.7319 
     21 O         -69.1002   30.5983  -70.8135 O.2       10 UNK        -0.5018 
     22 N         -71.6541   29.9956  -73.3683 N.am      10 UNK        -0.4509 
     23 C         -72.0085   30.8640  -74.3221 C.2       10 UNK         0.4899 
     24 O         -72.0482   32.0851  -74.1622 O.2       10 UNK        -0.4839 
     25 CA        -72.3644   30.2489  -75.6922 C.3       9 UNK         0.0222 
     26 CB        -72.3443   31.2840  -76.8364 C.3       9 UNK        -0.1966 
     27 N         -71.5429   29.0796  -76.0409 N.am      9 UNK        -0.4218 
     28 C         -70.2019   29.0335  -76.1401 C.2       9 UNK         0.5020 
     29 O         -69.4695   29.9955  -75.9054 O.2       9 UNK        -0.5274 
     30 CA        -69.5437   27.6903  -76.5155 C.3       8 UNK         0.0270 
     31 CB        -68.8358   27.0861  -75.2903 C.3       8 UNK        -0.1976 
     32 N         -70.4766   26.7006  -77.0560 N.am      8 UNK        -0.4313 
     33 C         -71.0745   26.7692  -78.2531 C.2       8 UNK         0.5041 
     34 O         -70.8200   27.6295  -79.0966 O.2       8 UNK        -0.5577 
     35 CA        -72.1624   25.7182  -78.5500 C.3       7 UNK         0.0284 
     36 CB        -71.6079   24.6182  -79.4703 C.3       7 UNK        -0.1958 
     37 N         -72.7574   25.0956  -77.3577 N.am      7 UNK        -0.4454 
     38 C         -73.4220   25.7452  -76.3922 C.2       7 UNK         0.5089 
     39 O         -73.5541   26.9707  -76.3507 O.2       7 UNK        -0.5125 
     40 CA        -73.9600   24.8890  -75.2378 C.3       6 UNK         0.0408 
     41 CB        -73.0087   24.9595  -74.0324 C.3       6 UNK        -0.1791 
     42 N         -75.2853   25.3538  -74.8343 N.am      6 UNK        -0.4762 
     43 C         -76.4163   25.0632  -75.4899 C.2       6 UNK         0.5007 
     44 O         -76.4716   24.3049  -76.4612 O.2       6 UNK        -0.5032 
     45 CA        -77.7087   25.7163  -74.9609 C.3       5 UNK         0.0783 
     46 C46       -78.3379   26.7167  -75.9673 C.3       11 UNK        -0.0857 
     47 S47       -77.2401   28.1000  -76.4456 S.3       11 UNK        -0.2512 
     48 C48       -77.6515   29.3844  -75.2207 C.3       11 UNK         0.0225 
     49 N         -78.6527   24.6653  -74.5735 N.am      5 UNK        -0.4615 
     50 C         -78.5144   23.9159  -73.4677 C.2       4 UNK         0.5053 
     51 O         -77.6452   24.1265  -72.6214 O.2       4 UNK        -0.5105 
     52 CA        -79.4829   22.7392  -73.2429 C.3       4 UNK         0.0263 
     53 CB        -80.2606   22.8997  -71.9246 C.3       4 UNK        -0.1981 
     54 N         -80.4295   22.5570  -74.3449 N.am      4 UNK        -0.4224 
     55 C         -80.2093   21.7720  -75.4103 C.2       3 UNK         0.4895 
     56 O         -79.2015   21.0777  -75.5477 O.2       3 UNK        -0.5091 
     57 CA        -81.2796   21.7488  -76.5203 C.3       3 UNK         0.0250 
     58 CB        -82.1501   20.4873  -76.3989 C.3       3 UNK        -0.1996 
     59 N         -82.1496   22.9285  -76.5500 N.am      3 UNK        -0.4254 
     60 C         -81.7394   24.1809  -76.7916 C.2       2 UNK         0.5004 
     61 O         -80.5681   24.4762  -77.0286 O.2       2 UNK        -0.5226 
     62 CA        -82.7871   25.3075  -76.6967 C.3       2 UNK         0.0269 
     63 CB        -84.2404   24.8123  -76.5144 C.3       2 UNK        -0.1926 
     64 N         -82.4471   26.2678  -75.6392 N.am      2 UNK        -0.4687 
     65 C         -82.1951   25.9963  -74.3498 C.2       1 UNK         0.5165 
     66 O         -82.2414   24.8613  -73.8710 O.2       1 UNK        -0.5079 
     67 H67       -84.5823   30.7643  -73.7613 H         1 UNK         0.0900 
     68 H68       -85.5655   29.5019  -74.5084 H         1 UNK         0.0900 
     69 H69       -85.1591   29.4062  -72.7933 H         1 UNK         0.0900 
     70 H70       -83.5556   27.8916  -72.3949 H         1 UNK         0.2959 
     71 H71       -81.1188   27.7901  -73.9862 H         1 UNK         0.1079 
     72 H72       -80.3354   26.1850  -72.2745 H         1 UNK         0.0837 
     73 H73       -81.9183   26.1283  -71.5394 H         1 UNK         0.0837 
     74 H74       -78.8551   28.3966  -69.6570 H         1 UNK         0.0685 
     75 H75       -78.9899   26.7789  -70.2971 H         1 UNK         0.0685 
     76 H76       -79.3379   28.8270  -73.1806 H         1 UNK         0.1434 
     77 H77       -75.1809   28.9922  -74.1476 H         1 UNK         0.1329 
     78 H78       -76.4121   27.6319  -70.2742 H         1 UNK         0.1335 
     79 H79       -73.5695   28.0029  -72.6466 H         1 UNK         0.0680 
     80 H80       -74.0572   27.2494  -71.1442 H         1 UNK         0.0680 
     81 H81       -71.5350   28.3708  -71.1346 H         1 UNK         0.1032 
     82 H82       -71.4003   29.6473  -69.9567 H         1 UNK         0.1032 
     83 H83       -71.5242   31.3601  -71.7881 H         1 UNK         0.0461 
     84 H84       -67.8699   30.4016  -72.8938 H         1 UNK         0.3453 
     85 H85       -69.2745   30.2525  -73.9201 H         1 UNK         0.3453 
     86 H86       -71.6178   29.0167  -73.6063 H         1 UNK         0.2984 
     87 H87       -73.3874   29.8811  -75.6020 H         1 UNK         0.0554 
     88 H88       -73.0518   32.0922  -76.6473 H         1 UNK         0.0847 
     89 H89       -72.6219   30.8285  -77.7870 H         1 UNK         0.0847 
     90 H90       -71.3587   31.7351  -76.9557 H         1 UNK         0.0847 
     91 H91       -72.0739   28.2340  -76.2362 H         1 UNK         0.3141 
     92 H92       -68.7918   27.9009  -77.2789 H         1 UNK         0.0743 
     93 H93       -69.5392   26.8488  -74.4911 H         1 UNK         0.0784 
     94 H94       -68.3008   26.1726  -75.5508 H         1 UNK         0.0784 
     95 H95       -68.1012   27.7810  -74.8802 H         1 UNK         0.0784 
     96 H96       -70.7366   25.9403  -76.4455 H         1 UNK         0.3213 
     97 H97       -72.9652   26.2352  -79.0802 H         1 UNK         0.0855 
     98 H98       -70.8184   24.0439  -78.9838 H         1 UNK         0.0814 
     99 H99       -71.1848   25.0467  -80.3801 H         1 UNK         0.0814 
    100 H100      -72.3903   23.9238  -79.7774 H         1 UNK         0.0814 
    101 H101      -72.6860   24.0894  -77.2967 H         1 UNK         0.3105 
    102 H102      -74.0324   23.8477  -75.5596 H         1 UNK         0.0547 
    103 H103      -73.3917   24.3836  -73.1896 H         1 UNK         0.0837 
    104 H104      -72.8534   25.9843  -73.6957 H         1 UNK         0.0837 
    105 H105      -72.0297   24.5492  -74.2832 H         1 UNK         0.0837 
    106 H106      -75.3184   26.0110  -74.0685 H         1 UNK         0.3020 
    107 H107      -77.4591   26.2683  -74.0545 H         1 UNK         0.1245 
    108 H108      -79.2636   27.1259  -75.5618 H         1 UNK         0.0781 
    109 H109      -78.6191   26.1970  -76.8842 H         1 UNK         0.0781 
    110 H110      -78.7089   29.6406  -75.3056 H         1 UNK         0.0836 
    111 H111      -77.0957   30.2925  -75.4589 H         1 UNK         0.0836 
    112 H112      -79.3457   24.4099  -75.2677 H         1 UNK         0.3022 
    113 H113      -78.8658   21.8433  -73.1463 H         1 UNK         0.0747 
    114 H114      -80.9049   22.0402  -71.7394 H         1 UNK         0.0793 
    115 H115      -79.5806   22.9804  -71.0756 H         1 UNK         0.0793 
    116 H116      -80.8860   23.7909  -71.9233 H         1 UNK         0.0793 
    117 H117      -81.2654   23.1336  -74.3137 H         1 UNK         0.3047 
    118 H118      -80.7494   21.7079  -77.4743 H         1 UNK         0.0822 
    119 H119      -82.8503   20.4052  -77.2305 H         1 UNK         0.0807 
    120 H120      -82.7248   20.4811  -75.4718 H         1 UNK         0.0807 
    121 H121      -81.5353   19.5859  -76.4068 H         1 UNK         0.0807 
    122 H122      -83.1243   22.7792  -76.3323 H         1 UNK         0.2946 
    123 H123      -82.7346   25.8474  -77.6437 H         1 UNK         0.1144 
    124 H124      -84.3833   24.2814  -75.5723 H         1 UNK         0.0793 
    125 H125      -84.5378   24.1459  -77.3254 H         1 UNK         0.0793 
    126 H126      -84.9383   25.6498  -76.5236 H         1 UNK         0.0793 
    127 H127      -82.4275   27.2443  -75.9153 H         1 UNK         0.2896 
@<TRIPOS>BOND
     1    1    2 1    
     2    1   67 1    
     3    1   68 1    
     4    1   69 1    
     5    2    3 2    
     6    2    4 am   BACKBONE|DICT|INTERRES
     7    4    5 1    
     8    4   70 1    
     9    5    6 1    
    10    5   65 1    
    11    5   71 1    
    12    6    7 1    
    13    6   72 1    
    14    6   73 1    
    15    7    8 1    
    16    8    9 1    
    17    8   74 1    
    18    8   75 1    
    19    9   10 ar   
    20    9   14 ar   
    21   10   11 ar   
    22   10   76 1    
    23   11   12 ar   
    24   11   48 1    
    25   12   13 ar   
    26   12   77 1    
    27   13   14 ar   
    28   13   15 1    
    29   14   78 1    
    30   15   16 1    
    31   15   79 1    
    32   15   80 1    
    33   16   17 1    
    34   17   18 1    
    35   17   81 1    
    36   17   82 1    
    37   18   19 1    
    38   18   22 1    
    39   18   83 1    
    40   19   20 am   BACKBONE|DICT|INTERRES
    41   19   21 2    
    42   20   84 1    
    43   20   85 1    
    44   22   23 am   BACKBONE|DICT|INTERRES
    45   22   86 1    
    46   23   24 2    
    47   23   25 1    
    48   25   26 1    
    49   25   27 1    
    50   25   87 1    
    51   26   88 1    
    52   26   89 1    
    53   26   90 1    
    54   27   28 am   BACKBONE|DICT|INTERRES
    55   27   91 1    
    56   28   29 2    
    57   28   30 1    
    58   30   31 1    
    59   30   32 1    
    60   30   92 1    
    61   31   93 1    
    62   31   94 1    
    63   31   95 1    
    64   32   33 am   BACKBONE|DICT|INTERRES
    65   32   96 1    
    66   33   34 2    
    67   33   35 1    
    68   35   36 1    
    69   35   37 1    
    70   35   97 1    
    71   36   98 1    
    72   36   99 1    
    73   36  100 1    
    74   37   38 am   BACKBONE|DICT|INTERRES
    75   37  101 1    
    76   38   39 2    
    77   38   40 1    
    78   40   41 1    
    79   40   42 1    
    80   40  102 1    
    81   41  103 1    
    82   41  104 1    
    83   41  105 1    
    84   42   43 am   BACKBONE|DICT|INTERRES
    85   42  106 1    
    86   43   44 2    
    87   43   45 1    
    88   45   46 1    
    89   45   49 1    
    90   45  107 1    
    91   46   47 1    
    92   46  108 1    
    93   46  109 1    
    94   47   48 1    
    95   48  110 1    
    96   48  111 1    
    97   49   50 am   BACKBONE|DICT|INTERRES
    98   49  112 1    
    99   50   51 2    
   100   50   52 1    
   101   52   53 1    
   102   52   54 1    
   103   52  113 1    
   104   53  114 1    
   105   53  115 1    
   106   53  116 1    
   107   54   55 am   BACKBONE|DICT|INTERRES
   108   54  117 1    
   109   55   56 2    
   110   55   57 1    
   111   57   58 1    
   112   57   59 1    
   113   57  118 1    
   114   58  119 1    
   115   58  120 1    
   116   58  121 1    
   117   59   60 am   BACKBONE|DICT|INTERRES
   118   59  122 1    
   119   60   61 2    
   120   60   62 1    
   121   62   63 1    
   122   62   64 1    
   123   62  123 1    
   124   63  124 1    
   125   63  125 1    
   126   63  126 1    
   127   64   65 am   BACKBONE|DICT|INTERRES
   128   64  127 1    
   129   65   66 2    
@<TRIPOS>SUBSTRUCTURE
     1 UNK         1 GROUP             0       ****    0 ROOT    
