@<TRIPOS>MOLECULE
3R135
127   129    1
SMALL
USER_CHARGES


@<TRIPOS>ATOM
      1 CA        -82.7007   22.9104  -72.1344 C.3       0 UNK        -0.1998 
      2 C         -81.8079   23.9820  -72.7391 C.2       0 UNK         0.4909 
      3 O         -80.8312   23.6513  -73.4140 O.2       0 UNK        -0.5240 
      4 N         -82.1452   25.2631  -72.5208 N.am      1 UNK        -0.4739 
      5 CA        -81.3941   26.4499  -72.9677 C.3       1 UNK         0.0864 
      6 C6        -80.0368   26.6032  -72.2357 C.3       11 UNK        -0.0881 
      7 S7        -80.1692   26.8154  -70.4265 S.3       11 UNK        -0.2682 
      8 C8        -79.8513   28.5990  -70.1886 C.3       11 UNK         0.0289 
      9 C9        -78.5844   29.0793  -70.8877 C.ar      11 UNK        -0.0687 
     10 C10       -78.6827   29.9266  -71.9962 C.ar      11 UNK        -0.0823 
     11 C11       -77.5380   30.3334  -72.6866 C.ar      11 UNK        -0.0830 
     12 C12       -76.2845   29.9031  -72.2458 C.ar      11 UNK        -0.1021 
     13 C13       -76.1704   29.0603  -71.1366 C.ar      11 UNK        -0.0753 
     14 C14       -77.3232   28.6556  -70.4552 C.ar      11 UNK        -0.0933 
     15 C15       -74.7978   28.5696  -70.7077 C.3       11 UNK         0.0166 
     16 S16       -73.8302   29.9111  -69.9503 S.3       11 UNK        -0.2615 
     17 C17       -72.1254   29.3373  -70.2596 C.3       11 UNK        -0.0865 
     18 CA        -71.4724   30.0542  -71.4729 C.3       10 UNK         0.0862 
     19 C         -69.9458   29.7541  -71.5517 C.2       10 UNK         0.5551 
     20 N         -69.4238   29.2206  -72.6497 N.am      10 UNK        -0.7319 
     21 O         -69.2185   30.0204  -70.5980 O.2       10 UNK        -0.5018 
     22 N         -72.2076   29.7837  -72.7203 N.am      10 UNK        -0.4509 
     23 C         -72.2431   30.5772  -73.7951 C.2       10 UNK         0.4899 
     24 O         -71.6736   31.6675  -73.8618 O.2       10 UNK        -0.4839 
     25 CA        -73.0288   30.0342  -75.0060 C.3       9 UNK         0.0222 
     26 CB        -73.1802   31.0740  -76.1312 C.3       9 UNK        -0.1966 
     27 N         -72.4190   28.8187  -75.5549 N.am      9 UNK        -0.4218 
     28 C         -72.5058   27.5998  -75.0082 C.2       9 UNK         0.5020 
     29 O         -73.1089   27.3676  -73.9589 O.2       9 UNK        -0.5274 
     30 CA        -71.7634   26.4652  -75.7203 C.3       8 UNK         0.0270 
     31 CB        -70.7802   25.7605  -74.7645 C.3       8 UNK        -0.1976 
     32 N         -72.7356   25.5128  -76.2515 N.am      8 UNK        -0.4313 
     33 C         -72.4899   24.6472  -77.2440 C.2       8 UNK         0.5041 
     34 O         -71.3965   24.5400  -77.8025 O.2       8 UNK        -0.5577 
     35 CA        -73.6562   23.7604  -77.7142 C.3       7 UNK         0.0284 
     36 CB        -73.9677   22.6558  -76.6907 C.3       7 UNK        -0.1958 
     37 N         -74.8642   24.5346  -78.0023 N.am      7 UNK        -0.4454 
     38 C         -74.9979   25.3798  -79.0352 C.2       7 UNK         0.5089 
     39 O         -74.1430   25.5411  -79.9068 O.2       7 UNK        -0.5125 
     40 CA        -76.2986   26.1999  -79.1020 C.3       6 UNK         0.0408 
     41 CB        -77.4053   25.4244  -79.8339 C.3       6 UNK        -0.1791 
     42 N         -76.7674   26.6032  -77.7751 N.am      6 UNK        -0.4762 
     43 C         -76.1517   27.5137  -77.0042 C.2       6 UNK         0.5007 
     44 O         -75.1736   28.1640  -77.3721 O.2       6 UNK        -0.5032 
     45 CA        -76.7001   27.7004  -75.5730 C.3       5 UNK         0.0783 
     46 C46       -77.7431   28.8464  -75.5135 C.3       11 UNK        -0.0857 
     47 S47       -76.9430   30.4872  -75.4213 S.3       11 UNK        -0.2512 
     48 C48       -77.6663   31.2246  -73.9161 C.3       11 UNK         0.0225 
     49 N         -77.2146   26.4405  -75.0164 N.am      5 UNK        -0.4615 
     50 C         -76.4262   25.3959  -74.7153 C.2       4 UNK         0.5053 
     51 O         -75.2083   25.3981  -74.8776 O.2       4 UNK        -0.5105 
     52 CA        -77.0864   24.1062  -74.2055 C.3       4 UNK         0.0263 
     53 CB        -77.2493   24.1240  -72.6750 C.3       4 UNK        -0.1981 
     54 N         -78.3496   23.7910  -74.8829 N.am      4 UNK        -0.4224 
     55 C         -78.4067   23.4236  -76.1736 C.2       3 UNK         0.4895 
     56 O         -77.4321   23.4357  -76.9261 O.2       3 UNK        -0.5091 
     57 CA        -79.7626   22.9603  -76.7207 C.3       3 UNK         0.0250 
     58 CB        -80.1464   21.5845  -76.1503 C.3       3 UNK        -0.1996 
     59 N         -80.8087   23.9325  -76.4176 N.am      3 UNK        -0.4254 
     60 C         -81.1732   24.9299  -77.2359 C.2       2 UNK         0.5004 
     61 O         -80.7153   25.0905  -78.3675 O.2       2 UNK        -0.5226 
     62 CA        -82.2202   25.9311  -76.7079 C.3       2 UNK         0.0269 
     63 CB        -83.6244   25.5509  -77.2046 C.3       2 UNK        -0.1926 
     64 N         -82.2450   26.0596  -75.2465 N.am      2 UNK        -0.4687 
     65 C         -81.2112   26.4822  -74.5044 C.2       1 UNK         0.5165 
     66 O         -80.1339   26.8265  -74.9938 O.2       1 UNK        -0.5079 
     67 H67       -83.1083   22.2755  -72.9205 H         1 UNK         0.0900 
     68 H68       -82.1227   22.2841  -71.4556 H         1 UNK         0.0900 
     69 H69       -83.5327   23.3391  -71.5763 H         1 UNK         0.0900 
     70 H70       -82.9646   25.4625  -71.9635 H         1 UNK         0.2959 
     71 H71       -82.0033   27.3224  -72.7264 H         1 UNK         0.1079 
     72 H72       -79.4436   25.7113  -72.4118 H         1 UNK         0.0837 
     73 H73       -79.4564   27.4210  -72.6577 H         1 UNK         0.0837 
     74 H74       -80.7208   29.1571  -70.5393 H         1 UNK         0.0685 
     75 H75       -79.7700   28.8029  -69.1201 H         1 UNK         0.0685 
     76 H76       -79.6569   30.2492  -72.3376 H         1 UNK         0.1434 
     77 H77       -75.3945   30.2153  -72.7733 H         1 UNK         0.1329 
     78 H78       -77.2449   27.9930  -69.6041 H         1 UNK         0.1335 
     79 H79       -74.2795   28.1775  -71.5833 H         1 UNK         0.0680 
     80 H80       -74.8790   27.7420  -70.0015 H         1 UNK         0.0680 
     81 H81       -71.5552   29.5326  -69.3493 H         1 UNK         0.1032 
     82 H82       -72.1099   28.2541  -70.3938 H         1 UNK         0.1032 
     83 H83       -71.5404   31.1274  -71.2837 H         1 UNK         0.0461 
     84 H84       -68.4334   29.0376  -72.6876 H         1 UNK         0.3453 
     85 H85       -70.0085   29.0205  -73.4434 H         1 UNK         0.3453 
     86 H86       -72.6483   28.8721  -72.8018 H         1 UNK         0.2984 
     87 H87       -74.0324   29.7860  -74.6570 H         1 UNK         0.0554 
     88 H88       -73.6619   31.9801  -75.7612 H         1 UNK         0.0847 
     89 H89       -73.8017   30.6902  -76.9408 H         1 UNK         0.0847 
     90 H90       -72.2165   31.3631  -76.5522 H         1 UNK         0.0847 
     91 H91       -71.8926   28.9306  -76.4096 H         1 UNK         0.3141 
     92 H92       -71.1956   26.8885  -76.5517 H         1 UNK         0.0743 
     93 H93       -70.0809   26.4734  -74.3260 H         1 UNK         0.0784 
     94 H94       -71.3028   25.2678  -73.9436 H         1 UNK         0.0784 
     95 H95       -70.1888   25.0064  -75.2837 H         1 UNK         0.0784 
     96 H96       -73.6582   25.5328  -75.8113 H         1 UNK         0.3213 
     97 H97       -73.3475   23.2733  -78.6419 H         1 UNK         0.0855 
     98 H98       -74.2680   23.0639  -75.7262 H         1 UNK         0.0814 
     99 H99       -73.0915   22.0295  -76.5183 H         1 UNK         0.0814 
    100 H100      -74.7688   22.0048  -77.0414 H         1 UNK         0.0814 
    101 H101      -75.6499   24.4150  -77.3719 H         1 UNK         0.3105 
    102 H102      -76.0909   27.1059  -79.6756 H         1 UNK         0.0547 
    103 H103      -78.3138   26.0198  -79.9265 H         1 UNK         0.0837 
    104 H104      -77.0891   25.1569  -80.8429 H         1 UNK         0.0837 
    105 H105      -77.6657   24.4989  -79.3206 H         1 UNK         0.0837 
    106 H106      -77.5492   26.0919  -77.3901 H         1 UNK         0.3020 
    107 H107      -75.8501   27.9818  -74.9454 H         1 UNK         0.1245 
    108 H108      -78.3791   28.7234  -74.6380 H         1 UNK         0.0781 
    109 H109      -78.4227   28.8199  -76.3677 H         1 UNK         0.0781 
    110 H110      -78.7124   31.4615  -74.1166 H         1 UNK         0.0836 
    111 H111      -77.1707   32.1757  -73.7172 H         1 UNK         0.0836 
    112 H112      -78.2219   26.3736  -74.9014 H         1 UNK         0.3022 
    113 H113      -76.4070   23.2828  -74.4376 H         1 UNK         0.0747 
    114 H114      -78.0930   23.5210  -72.3383 H         1 UNK         0.0793 
    115 H115      -76.3551   23.7199  -72.1996 H         1 UNK         0.0793 
    116 H116      -77.3677   25.1332  -72.2810 H         1 UNK         0.0793 
    117 H117      -79.1968   23.7602  -74.3186 H         1 UNK         0.3047 
    118 H118      -79.6636   22.8508  -77.8031 H         1 UNK         0.0822 
    119 H119      -79.3787   20.8428  -76.3755 H         1 UNK         0.0807 
    120 H120      -81.0799   21.2251  -76.5835 H         1 UNK         0.0807 
    121 H121      -80.2690   21.6069  -75.0671 H         1 UNK         0.0807 
    122 H122      -81.1883   23.9077  -75.4785 H         1 UNK         0.2946 
    123 H123      -81.9609   26.9085  -77.1212 H         1 UNK         0.1144 
    124 H124      -84.3630   26.3013  -76.9219 H         1 UNK         0.0793 
    125 H125      -83.9484   24.5901  -76.8025 H         1 UNK         0.0793 
    126 H126      -83.6456   25.4727  -78.2926 H         1 UNK         0.0793 
    127 H127      -83.0887   25.7686  -74.7735 H         1 UNK         0.2896 
@<TRIPOS>BOND
     1    1    2 1    
     2    1   67 1    
     3    1   68 1    
     4    1   69 1    
     5    2    3 2    
     6    2    4 am   BACKBONE|DICT|INTERRES
     7    4    5 1    
     8    4   70 1    
     9    5    6 1    
    10    5   65 1    
    11    5   71 1    
    12    6    7 1    
    13    6   72 1    
    14    6   73 1    
    15    7    8 1    
    16    8    9 1    
    17    8   74 1    
    18    8   75 1    
    19    9   10 ar   
    20    9   14 ar   
    21   10   11 ar   
    22   10   76 1    
    23   11   12 ar   
    24   11   48 1    
    25   12   13 ar   
    26   12   77 1    
    27   13   14 ar   
    28   13   15 1    
    29   14   78 1    
    30   15   16 1    
    31   15   79 1    
    32   15   80 1    
    33   16   17 1    
    34   17   18 1    
    35   17   81 1    
    36   17   82 1    
    37   18   19 1    
    38   18   22 1    
    39   18   83 1    
    40   19   20 am   BACKBONE|DICT|INTERRES
    41   19   21 2    
    42   20   84 1    
    43   20   85 1    
    44   22   23 am   BACKBONE|DICT|INTERRES
    45   22   86 1    
    46   23   24 2    
    47   23   25 1    
    48   25   26 1    
    49   25   27 1    
    50   25   87 1    
    51   26   88 1    
    52   26   89 1    
    53   26   90 1    
    54   27   28 am   BACKBONE|DICT|INTERRES
    55   27   91 1    
    56   28   29 2    
    57   28   30 1    
    58   30   31 1    
    59   30   32 1    
    60   30   92 1    
    61   31   93 1    
    62   31   94 1    
    63   31   95 1    
    64   32   33 am   BACKBONE|DICT|INTERRES
    65   32   96 1    
    66   33   34 2    
    67   33   35 1    
    68   35   36 1    
    69   35   37 1    
    70   35   97 1    
    71   36   98 1    
    72   36   99 1    
    73   36  100 1    
    74   37   38 am   BACKBONE|DICT|INTERRES
    75   37  101 1    
    76   38   39 2    
    77   38   40 1    
    78   40   41 1    
    79   40   42 1    
    80   40  102 1    
    81   41  103 1    
    82   41  104 1    
    83   41  105 1    
    84   42   43 am   BACKBONE|DICT|INTERRES
    85   42  106 1    
    86   43   44 2    
    87   43   45 1    
    88   45   46 1    
    89   45   49 1    
    90   45  107 1    
    91   46   47 1    
    92   46  108 1    
    93   46  109 1    
    94   47   48 1    
    95   48  110 1    
    96   48  111 1    
    97   49   50 am   BACKBONE|DICT|INTERRES
    98   49  112 1    
    99   50   51 2    
   100   50   52 1    
   101   52   53 1    
   102   52   54 1    
   103   52  113 1    
   104   53  114 1    
   105   53  115 1    
   106   53  116 1    
   107   54   55 am   BACKBONE|DICT|INTERRES
   108   54  117 1    
   109   55   56 2    
   110   55   57 1    
   111   57   58 1    
   112   57   59 1    
   113   57  118 1    
   114   58  119 1    
   115   58  120 1    
   116   58  121 1    
   117   59   60 am   BACKBONE|DICT|INTERRES
   118   59  122 1    
   119   60   61 2    
   120   60   62 1    
   121   62   63 1    
   122   62   64 1    
   123   62  123 1    
   124   63  124 1    
   125   63  125 1    
   126   63  126 1    
   127   64   65 am   BACKBONE|DICT|INTERRES
   128   64  127 1    
   129   65   66 2    
@<TRIPOS>SUBSTRUCTURE
     1 UNK         1 GROUP             0       ****    0 ROOT    
