@<TRIPOS>MOLECULE
3R135
127   129    1
SMALL
USER_CHARGES


@<TRIPOS>ATOM
      1 CA        -85.3544   27.6233  -73.9969 C.3       0 UNK        -0.1998 
      2 C         -84.2474   28.1741  -74.8829 C.2       0 UNK         0.4909 
      3 O         -84.5248   28.6618  -75.9788 O.2       0 UNK        -0.5240 
      4 N         -82.9929   28.0956  -74.4192 N.am      1 UNK        -0.4739 
      5 CA        -81.8060   28.5979  -75.1286 C.3       1 UNK         0.0864 
      6 C6        -80.6275   28.8745  -74.1630 C.3       11 UNK        -0.0881 
      7 S7        -81.0310   30.0770  -72.8540 S.3       11 UNK        -0.2682 
      8 C8        -80.6634   29.1213  -71.3428 C.3       11 UNK         0.0289 
      9 C9        -79.1818   28.7972  -71.1497 C.ar      11 UNK        -0.0687 
     10 C10       -78.8047   27.5276  -70.6975 C.ar      11 UNK        -0.0823 
     11 C11       -77.4619   27.2278  -70.4434 C.ar      11 UNK        -0.0830 
     12 C12       -76.4852   28.1995  -70.6719 C.ar      11 UNK        -0.1021 
     13 C13       -76.8461   29.4732  -71.1190 C.ar      11 UNK        -0.0753 
     14 C14       -78.1932   29.7683  -71.3516 C.ar      11 UNK        -0.0933 
     15 C15       -75.7803   30.5386  -71.3116 C.3       11 UNK         0.0166 
     16 S16       -75.2805   30.6622  -73.0525 S.3       11 UNK        -0.2615 
     17 C17       -73.7437   31.6373  -72.8969 C.3       11 UNK        -0.0865 
     18 CA        -72.4540   30.8133  -73.1540 C.3       10 UNK         0.0862 
     19 C         -72.1062   29.8636  -71.9724 C.2       10 UNK         0.5551 
     20 N         -72.1469   28.5477  -72.1308 N.am      10 UNK        -0.7319 
     21 O         -71.7756   30.3384  -70.8886 O.2       10 UNK        -0.5018 
     22 N         -72.4705   30.1943  -74.4881 N.am      10 UNK        -0.4509 
     23 C         -71.3822   29.9194  -75.2149 C.2       10 UNK         0.4899 
     24 O         -70.2269   30.0678  -74.8129 O.2       10 UNK        -0.4839 
     25 CA        -71.6509   29.4530  -76.6535 C.3       9 UNK         0.0222 
     26 CB        -70.6046   29.9793  -77.6598 C.3       9 UNK        -0.1966 
     27 N         -71.8200   28.0012  -76.7428 N.am      9 UNK        -0.4218 
     28 C         -70.8939   27.0374  -76.6142 C.2       9 UNK         0.5020 
     29 O         -69.7043   27.2537  -76.3795 O.2       9 UNK        -0.5274 
     30 CA        -71.3463   25.5706  -76.7932 C.3       8 UNK         0.0270 
     31 CB        -71.0112   24.7373  -75.5435 C.3       8 UNK        -0.1976 
     32 N         -72.7695   25.4074  -77.1050 N.am      8 UNK        -0.4313 
     33 C         -73.3565   25.6930  -78.2757 C.2       8 UNK         0.5041 
     34 O         -72.7406   26.0455  -79.2817 O.2       8 UNK        -0.5577 
     35 CA        -74.8962   25.6354  -78.3119 C.3       7 UNK         0.0284 
     36 CB        -75.3791   24.2346  -78.7168 C.3       7 UNK        -0.1958 
     37 N         -75.5181   26.0273  -77.0404 N.am      7 UNK        -0.4454 
     38 C         -75.3961   27.2366  -76.4721 C.2       7 UNK         0.5089 
     39 O         -74.7809   28.1728  -76.9819 O.2       7 UNK        -0.5125 
     40 CA        -75.9982   27.4152  -75.0723 C.3       6 UNK         0.0408 
     41 CB        -77.4931   27.7402  -75.1355 C.3       6 UNK        -0.1791 
     42 N         -75.7818   26.2404  -74.2323 N.am      6 UNK        -0.4762 
     43 C         -74.6078   25.9376  -73.6644 C.2       6 UNK         0.5007 
     44 O         -73.6017   26.6410  -73.7650 O.2       6 UNK        -0.5032 
     45 CA        -74.5279   24.6028  -72.8962 C.3       5 UNK         0.0783 
     46 C46       -74.9652   24.7579  -71.4149 C.3       11 UNK        -0.0857 
     47 S47       -76.7741   24.6384  -71.1567 S.3       11 UNK        -0.2512 
     48 C48       -77.0787   25.8751  -69.8627 C.3       11 UNK         0.0225 
     49 N         -75.2521   23.5194  -73.5691 N.am      5 UNK        -0.4615 
     50 C         -74.9789   23.0297  -74.7831 C.2       4 UNK         0.5053 
     51 O         -74.0194   23.3865  -75.4628 O.2       4 UNK        -0.5105 
     52 CA        -75.9739   22.0029  -75.3529 C.3       4 UNK         0.0263 
     53 CB        -75.5822   20.5813  -74.9205 C.3       4 UNK        -0.1981 
     54 N         -77.3729   22.2603  -74.9863 N.am      4 UNK        -0.4224 
     55 C         -78.0508   23.3818  -75.2707 C.2       3 UNK         0.4895 
     56 O         -77.5546   24.3547  -75.8432 O.2       3 UNK        -0.5091 
     57 CA        -79.5061   23.4383  -74.7746 C.3       3 UNK         0.0250 
     58 CB        -79.5517   23.8053  -73.2827 C.3       3 UNK        -0.1996 
     59 N         -80.3199   24.4081  -75.5086 N.am      3 UNK        -0.4254 
     60 C         -80.6957   24.3038  -76.7907 C.2       2 UNK         0.5004 
     61 O         -80.4027   23.3481  -77.5111 O.2       2 UNK        -0.5226 
     62 CA        -81.5789   25.4318  -77.3594 C.3       2 UNK         0.0269 
     63 CB        -82.8968   24.8640  -77.9167 C.3       2 UNK        -0.1926 
     64 N         -81.9041   26.4540  -76.3565 N.am      2 UNK        -0.4687 
     65 C         -81.3471   27.6709  -76.2795 C.2       1 UNK         0.5165 
     66 O         -80.4866   28.0708  -77.0643 O.2       1 UNK        -0.5079 
     67 H67       -85.8860   26.8243  -74.5131 H         1 UNK         0.0900 
     68 H68       -84.9668   27.2233  -73.0601 H         1 UNK         0.0900 
     69 H69       -86.0697   28.4101  -73.7587 H         1 UNK         0.0900 
     70 H70       -82.8246   27.7070  -73.5023 H         1 UNK         0.2959 
     71 H71       -82.0746   29.5476  -75.5975 H         1 UNK         0.1079 
     72 H72       -80.2723   27.9448  -73.7149 H         1 UNK         0.0837 
     73 H73       -79.7854   29.2957  -74.7135 H         1 UNK         0.0837 
     74 H74       -81.0021   29.6971  -70.4806 H         1 UNK         0.0685 
     75 H75       -81.2609   28.2085  -71.3551 H         1 UNK         0.0685 
     76 H76       -79.5605   26.7762  -70.5130 H         1 UNK         0.1434 
     77 H77       -75.4454   27.9741  -70.4781 H         1 UNK         0.1329 
     78 H78       -78.4711   30.7596  -71.6823 H         1 UNK         0.1335 
     79 H79       -76.1514   31.5067  -70.9719 H         1 UNK         0.0680 
     80 H80       -74.9089   30.3082  -70.6965 H         1 UNK         0.0680 
     81 H81       -73.7983   32.4512  -73.6214 H         1 UNK         0.1032 
     82 H82       -73.7028   32.1279  -71.9224 H         1 UNK         0.1032 
     83 H83       -71.6404   31.5418  -73.1643 H         1 UNK         0.0461 
     84 H84       -71.9007   27.9568  -71.3543 H         1 UNK         0.3453 
     85 H85       -72.4948   28.1285  -72.9857 H         1 UNK         0.3453 
     86 H86       -73.3860   30.0063  -74.8714 H         1 UNK         0.2984 
     87 H87       -72.6088   29.8783  -76.9574 H         1 UNK         0.0554 
     88 H88       -70.5792   31.0695  -77.6535 H         1 UNK         0.0847 
     89 H89       -70.8401   29.6659  -78.6768 H         1 UNK         0.0847 
     90 H90       -69.5963   29.6358  -77.4281 H         1 UNK         0.0847 
     91 H91       -72.7781   27.7094  -76.9039 H         1 UNK         0.3141 
     92 H92       -70.7735   25.1657  -77.6299 H         1 UNK         0.0743 
     93 H93       -71.5517   25.0933  -74.6664 H         1 UNK         0.0784 
     94 H94       -71.2615   23.6862  -75.6884 H         1 UNK         0.0784 
     95 H95       -69.9465   24.7843  -75.3113 H         1 UNK         0.0784 
     96 H96       -73.3490   25.0211  -76.3650 H         1 UNK         0.3213 
     97 H97       -75.2350   26.3449  -79.0698 H         1 UNK         0.0855 
     98 H98       -74.9994   23.4686  -78.0419 H         1 UNK         0.0814 
     99 H99       -75.0324   23.9812  -79.7195 H         1 UNK         0.0814 
    100 H100      -76.4677   24.1713  -78.7223 H         1 UNK         0.0814 
    101 H101      -76.0935   25.3330  -76.5682 H         1 UNK         0.3105 
    102 H102      -75.4955   28.2631  -74.6066 H         1 UNK         0.0547 
    103 H103      -77.6685   28.6359  -75.7325 H         1 UNK         0.0837 
    104 H104      -78.0751   26.9326  -75.5797 H         1 UNK         0.0837 
    105 H105      -77.8803   27.9307  -74.1347 H         1 UNK         0.0837 
    106 H106      -76.5447   25.5815  -74.1586 H         1 UNK         0.3020 
    107 H107      -73.4715   24.3241  -72.8986 H         1 UNK         0.1245 
    108 H108      -74.5818   25.6875  -70.9898 H         1 UNK         0.0781 
    109 H109      -74.5084   23.9617  -70.8252 H         1 UNK         0.0781 
    110 H110      -76.2064   25.9655  -69.2135 H         1 UNK         0.0836 
    111 H111      -77.8853   25.5125  -69.2238 H         1 UNK         0.0836 
    112 H112      -76.0676   23.1777  -73.0814 H         1 UNK         0.3022 
    113 H113      -75.9112   22.0535  -76.4407 H         1 UNK         0.0747 
    114 H114      -76.2142   19.8321  -75.3978 H         1 UNK         0.0793 
    115 H115      -74.5517   20.3586  -75.2019 H         1 UNK         0.0793 
    116 H116      -75.6606   20.4499  -73.8405 H         1 UNK         0.0793 
    117 H117      -77.8525   21.5163  -74.4995 H         1 UNK         0.3047 
    118 H118      -79.9541   22.4516  -74.9112 H         1 UNK         0.0822 
    119 H119      -78.9893   23.0900  -72.6813 H         1 UNK         0.0807 
    120 H120      -80.5741   23.8040  -72.9041 H         1 UNK         0.0807 
    121 H121      -79.1285   24.7938  -73.0977 H         1 UNK         0.0807 
    122 H122      -80.5857   25.2429  -75.0106 H         1 UNK         0.2946 
    123 H123      -81.0235   25.8780  -78.1876 H         1 UNK         0.1144 
    124 H124      -83.5159   25.6515  -78.3470 H         1 UNK         0.0793 
    125 H125      -83.4804   24.3632  -77.1434 H         1 UNK         0.0793 
    126 H126      -82.7088   24.1358  -78.7070 H         1 UNK         0.0793 
    127 H127      -82.6150   26.2161  -75.6792 H         1 UNK         0.2896 
@<TRIPOS>BOND
     1    1    2 1    
     2    1   67 1    
     3    1   68 1    
     4    1   69 1    
     5    2    3 2    
     6    2    4 am   BACKBONE|DICT|INTERRES
     7    4    5 1    
     8    4   70 1    
     9    5    6 1    
    10    5   65 1    
    11    5   71 1    
    12    6    7 1    
    13    6   72 1    
    14    6   73 1    
    15    7    8 1    
    16    8    9 1    
    17    8   74 1    
    18    8   75 1    
    19    9   10 ar   
    20    9   14 ar   
    21   10   11 ar   
    22   10   76 1    
    23   11   12 ar   
    24   11   48 1    
    25   12   13 ar   
    26   12   77 1    
    27   13   14 ar   
    28   13   15 1    
    29   14   78 1    
    30   15   16 1    
    31   15   79 1    
    32   15   80 1    
    33   16   17 1    
    34   17   18 1    
    35   17   81 1    
    36   17   82 1    
    37   18   19 1    
    38   18   22 1    
    39   18   83 1    
    40   19   20 am   BACKBONE|DICT|INTERRES
    41   19   21 2    
    42   20   84 1    
    43   20   85 1    
    44   22   23 am   BACKBONE|DICT|INTERRES
    45   22   86 1    
    46   23   24 2    
    47   23   25 1    
    48   25   26 1    
    49   25   27 1    
    50   25   87 1    
    51   26   88 1    
    52   26   89 1    
    53   26   90 1    
    54   27   28 am   BACKBONE|DICT|INTERRES
    55   27   91 1    
    56   28   29 2    
    57   28   30 1    
    58   30   31 1    
    59   30   32 1    
    60   30   92 1    
    61   31   93 1    
    62   31   94 1    
    63   31   95 1    
    64   32   33 am   BACKBONE|DICT|INTERRES
    65   32   96 1    
    66   33   34 2    
    67   33   35 1    
    68   35   36 1    
    69   35   37 1    
    70   35   97 1    
    71   36   98 1    
    72   36   99 1    
    73   36  100 1    
    74   37   38 am   BACKBONE|DICT|INTERRES
    75   37  101 1    
    76   38   39 2    
    77   38   40 1    
    78   40   41 1    
    79   40   42 1    
    80   40  102 1    
    81   41  103 1    
    82   41  104 1    
    83   41  105 1    
    84   42   43 am   BACKBONE|DICT|INTERRES
    85   42  106 1    
    86   43   44 2    
    87   43   45 1    
    88   45   46 1    
    89   45   49 1    
    90   45  107 1    
    91   46   47 1    
    92   46  108 1    
    93   46  109 1    
    94   47   48 1    
    95   48  110 1    
    96   48  111 1    
    97   49   50 am   BACKBONE|DICT|INTERRES
    98   49  112 1    
    99   50   51 2    
   100   50   52 1    
   101   52   53 1    
   102   52   54 1    
   103   52  113 1    
   104   53  114 1    
   105   53  115 1    
   106   53  116 1    
   107   54   55 am   BACKBONE|DICT|INTERRES
   108   54  117 1    
   109   55   56 2    
   110   55   57 1    
   111   57   58 1    
   112   57   59 1    
   113   57  118 1    
   114   58  119 1    
   115   58  120 1    
   116   58  121 1    
   117   59   60 am   BACKBONE|DICT|INTERRES
   118   59  122 1    
   119   60   61 2    
   120   60   62 1    
   121   62   63 1    
   122   62   64 1    
   123   62  123 1    
   124   63  124 1    
   125   63  125 1    
   126   63  126 1    
   127   64   65 am   BACKBONE|DICT|INTERRES
   128   64  127 1    
   129   65   66 2    
@<TRIPOS>SUBSTRUCTURE
     1 UNK         1 GROUP             0       ****    0 ROOT    
