@<TRIPOS>MOLECULE
3R135
127   129    1
SMALL
USER_CHARGES


@<TRIPOS>ATOM
      1 CA        -80.4267   28.2163  -70.4592 C.3       0 UNK        -0.1998 
      2 C         -81.2327   28.1392  -71.7465 C.2       0 UNK         0.4909 
      3 O         -82.4361   27.8821  -71.7053 O.2       0 UNK        -0.5240 
      4 N         -80.5745   28.3677  -72.8896 N.am      1 UNK        -0.4739 
      5 CA        -81.1748   28.3665  -74.2315 C.3       1 UNK         0.0864 
      6 C6        -80.2433   29.0088  -75.2909 C.3       11 UNK        -0.0881 
      7 S7        -79.7498   30.7183  -74.8738 S.3       11 UNK        -0.2682 
      8 C8        -77.9377   30.5835  -74.7406 C.3       11 UNK         0.0289 
      9 C9        -77.4980   30.0647  -73.3786 C.ar      11 UNK        -0.0687 
     10 C10       -77.4274   28.6911  -73.1343 C.ar      11 UNK        -0.0823 
     11 C11       -77.0088   28.1979  -71.8899 C.ar      11 UNK        -0.0830 
     12 C12       -76.6348   29.1104  -70.9001 C.ar      11 UNK        -0.1021 
     13 C13       -76.6913   30.4874  -71.1318 C.ar      11 UNK        -0.0753 
     14 C14       -77.1371   30.9596  -72.3687 C.ar      11 UNK        -0.0933 
     15 C15       -76.2607   31.4612  -70.0442 C.3       11 UNK         0.0166 
     16 S16       -74.7463   32.3736  -70.4876 S.3       11 UNK        -0.2615 
     17 C17       -73.5639   31.0298  -70.8641 C.3       11 UNK        -0.0865 
     18 CA        -73.2257   30.9425  -72.3852 C.3       10 UNK         0.0862 
     19 C         -72.0719   31.9064  -72.8109 C.2       10 UNK         0.5551 
     20 N         -71.1645   31.5180  -73.6993 N.am      10 UNK        -0.7319 
     21 O         -72.0062   33.0436  -72.3512 O.2       10 UNK        -0.5018 
     22 N         -73.0753   29.5573  -72.8663 N.am      10 UNK        -0.4509 
     23 C         -72.1902   28.6574  -72.4170 C.2       10 UNK         0.4899 
     24 O         -71.4607   28.8352  -71.4413 O.2       10 UNK        -0.4839 
     25 CA        -72.0721   27.3382  -73.2064 C.3       9 UNK         0.0222 
     26 CB        -72.9645   26.2557  -72.5837 C.3       9 UNK        -0.1966 
     27 N         -72.3631   27.4428  -74.6443 N.am      9 UNK        -0.4218 
     28 C         -71.6916   28.2263  -75.5040 C.2       9 UNK         0.5020 
     29 O         -70.8075   29.0110  -75.1592 O.2       9 UNK        -0.5274 
     30 CA        -72.0463   28.1356  -76.9936 C.3       8 UNK         0.0270 
     31 CB        -71.1678   27.0770  -77.6816 C.3       8 UNK        -0.1976 
     32 N         -73.4535   27.8047  -77.2248 N.am      8 UNK        -0.4313 
     33 C         -74.3046   28.5343  -77.9622 C.2       8 UNK         0.5041 
     34 O         -74.0303   29.6472  -78.4153 O.2       8 UNK        -0.5577 
     35 CA        -75.6928   27.9186  -78.2595 C.3       7 UNK         0.0284 
     36 CB        -76.2667   28.3780  -79.6164 C.3       7 UNK        -0.1958 
     37 N         -75.7187   26.4530  -78.1549 N.am      7 UNK        -0.4454 
     38 C         -74.9643   25.5636  -78.8224 C.2       7 UNK         0.5089 
     39 O         -74.2524   25.8521  -79.7849 O.2       7 UNK        -0.5125 
     40 CA        -74.9644   24.1157  -78.2829 C.3       6 UNK         0.0408 
     41 CB        -73.5683   23.4668  -78.3796 C.3       6 UNK        -0.1791 
     42 N         -75.4913   23.9799  -76.9153 N.am      6 UNK        -0.4762 
     43 C         -75.0450   24.5705  -75.7907 C.2       6 UNK         0.5007 
     44 O         -74.0857   25.3472  -75.7602 O.2       6 UNK        -0.5032 
     45 CA        -75.8711   24.3541  -74.5047 C.3       5 UNK         0.0783 
     46 C46       -76.6242   25.6662  -74.1785 C.3       11 UNK        -0.0857 
     47 S47       -77.7300   25.5626  -72.7288 S.3       11 UNK        -0.2512 
     48 C48       -76.9332   26.7055  -71.5497 C.3       11 UNK         0.0225 
     49 N         -76.7855   23.2144  -74.6228 N.am      5 UNK        -0.4615 
     50 C         -76.4139   21.9295  -74.5351 C.2       4 UNK         0.5053 
     51 O         -75.2630   21.5729  -74.2829 O.2       4 UNK        -0.5105 
     52 CA        -77.4914   20.8552  -74.7805 C.3       4 UNK         0.0263 
     53 CB        -77.9738   20.2708  -73.4429 C.3       4 UNK        -0.1981 
     54 N         -78.6534   21.3310  -75.5370 N.am      4 UNK        -0.4224 
     55 C         -78.6360   21.7766  -76.8024 C.2       3 UNK         0.4895 
     56 O         -77.6270   21.8028  -77.5072 O.2       3 UNK        -0.5091 
     57 CA        -79.9578   22.3497  -77.3478 C.3       3 UNK         0.0250 
     58 CB        -80.7740   21.2519  -78.0485 C.3       3 UNK        -0.1996 
     59 N         -80.7814   22.9924  -76.3141 N.am      3 UNK        -0.4254 
     60 C         -80.3981   24.0633  -75.6046 C.2       2 UNK         0.5004 
     61 O         -79.3190   24.6360  -75.7716 O.2       2 UNK        -0.5226 
     62 CA        -81.3371   24.5100  -74.4746 C.3       2 UNK         0.0269 
     63 CB        -81.1337   23.6236  -73.2337 C.3       2 UNK        -0.1926 
     64 N         -81.0776   25.9007  -74.1019 N.am      2 UNK        -0.4687 
     65 C         -81.6257   26.9650  -74.7031 C.2       1 UNK         0.5165 
     66 O         -82.4617   26.8763  -75.6043 O.2       1 UNK        -0.5079 
     67 H67       -81.0388   28.6140  -69.6502 H         1 UNK         0.0900 
     68 H68       -79.5594   28.8662  -70.5705 H         1 UNK         0.0900 
     69 H69       -80.0809   27.2239  -70.1716 H         1 UNK         0.0900 
     70 H70       -79.5945   28.6132  -72.8516 H         1 UNK         0.2959 
     71 H71       -82.0812   28.9739  -74.1761 H         1 UNK         0.1079 
     72 H72       -79.3607   28.3898  -75.4563 H         1 UNK         0.0837 
     73 H73       -80.7519   29.0530  -76.2562 H         1 UNK         0.0837 
     74 H74       -77.5484   29.9469  -75.5366 H         1 UNK         0.0685 
     75 H75       -77.5066   31.5709  -74.9134 H         1 UNK         0.0685 
     76 H76       -77.7131   28.0193  -73.9261 H         1 UNK         0.1434 
     77 H77       -76.2957   28.7450  -69.9400 H         1 UNK         0.1329 
     78 H78       -77.1816   32.0250  -72.5493 H         1 UNK         0.1335 
     79 H79       -77.0647   32.1760  -69.8639 H         1 UNK         0.0680 
     80 H80       -76.0953   30.9414  -69.0991 H         1 UNK         0.0680 
     81 H81       -73.9846   30.0882  -70.5110 H         1 UNK         0.1032 
     82 H82       -72.6597   31.1731  -70.2696 H         1 UNK         0.1032 
     83 H83       -74.0950   31.3014  -72.9373 H         1 UNK         0.0461 
     84 H84       -70.4368   32.1620  -73.9645 H         1 UNK         0.3453 
     85 H85       -71.1752   30.5852  -74.1000 H         1 UNK         0.3453 
     86 H86       -73.6229   29.3178  -73.6793 H         1 UNK         0.2984 
     87 H87       -71.0354   27.0072  -73.1164 H         1 UNK         0.0554 
     88 H88       -72.8013   25.2855  -73.0532 H         1 UNK         0.0847 
     89 H89       -74.0171   26.5085  -72.6867 H         1 UNK         0.0847 
     90 H90       -72.7578   26.1393  -71.5188 H         1 UNK         0.0847 
     91 H91       -73.0365   26.7792  -75.0147 H         1 UNK         0.3141 
     92 H92       -71.8082   29.1065  -77.4332 H         1 UNK         0.0743 
     93 H93       -71.3443   26.0799  -77.2759 H         1 UNK         0.0784 
     94 H94       -71.3622   27.0394  -78.7538 H         1 UNK         0.0784 
     95 H95       -70.1082   27.3017  -77.5511 H         1 UNK         0.0784 
     96 H96       -73.7677   26.9036  -76.8771 H         1 UNK         0.3213 
     97 H97       -76.3569   28.2914  -77.4782 H         1 UNK         0.0855 
     98 H98       -76.3869   29.4616  -79.6451 H         1 UNK         0.0814 
     99 H99       -77.2478   27.9407  -79.8012 H         1 UNK         0.0814 
    100 H100      -75.6143   28.1022  -80.4454 H         1 UNK         0.0814 
    101 H101      -76.2863   26.0810  -77.4072 H         1 UNK         0.3105 
    102 H102      -75.6408   23.5514  -78.9264 H         1 UNK         0.0547 
    103 H103      -73.2194   23.4342  -79.4124 H         1 UNK         0.0837 
    104 H104      -72.8246   24.0178  -77.8034 H         1 UNK         0.0837 
    105 H105      -73.5827   22.4403  -78.0134 H         1 UNK         0.0837 
    106 H106      -76.2962   23.3671  -76.8358 H         1 UNK         0.3020 
    107 H107      -75.1652   24.1497  -73.6966 H         1 UNK         0.1245 
    108 H108      -77.2380   25.9731  -75.0269 H         1 UNK         0.0781 
    109 H109      -75.9094   26.4758  -74.0263 H         1 UNK         0.0781 
    110 H110      -75.8925   26.4141  -71.4143 H         1 UNK         0.0836 
    111 H111      -77.4134   26.5502  -70.5824 H         1 UNK         0.0836 
    112 H112      -77.7485   23.4468  -74.8349 H         1 UNK         0.3022 
    113 H113      -77.0247   20.0551  -75.3589 H         1 UNK         0.0747 
    114 H114      -78.6735   19.4490  -73.5965 H         1 UNK         0.0793 
    115 H115      -77.1372   19.8762  -72.8644 H         1 UNK         0.0793 
    116 H116      -78.4678   21.0245  -72.8279 H         1 UNK         0.0793 
    117 H117      -79.5333   21.3508  -75.0432 H         1 UNK         0.3047 
    118 H118      -79.7009   23.1110  -78.0878 H         1 UNK         0.0822 
    119 H119      -81.6697   21.6606  -78.5166 H         1 UNK         0.0807 
    120 H120      -81.0838   20.4703  -77.3536 H         1 UNK         0.0807 
    121 H121      -80.1891   20.7744  -78.8361 H         1 UNK         0.0807 
    122 H122      -81.6785   22.5697  -76.1208 H         1 UNK         0.2946 
    123 H123      -82.3706   24.4118  -74.8152 H         1 UNK         0.1144 
    124 H124      -81.3831   22.5833  -73.4459 H         1 UNK         0.0793 
    125 H125      -81.7723   23.9444  -72.4103 H         1 UNK         0.0793 
    126 H126      -80.1012   23.6461  -72.8828 H         1 UNK         0.0793 
    127 H127      -80.3547   26.0583  -73.4141 H         1 UNK         0.2896 
@<TRIPOS>BOND
     1    1    2 1    
     2    1   67 1    
     3    1   68 1    
     4    1   69 1    
     5    2    3 2    
     6    2    4 am   BACKBONE|DICT|INTERRES
     7    4    5 1    
     8    4   70 1    
     9    5    6 1    
    10    5   65 1    
    11    5   71 1    
    12    6    7 1    
    13    6   72 1    
    14    6   73 1    
    15    7    8 1    
    16    8    9 1    
    17    8   74 1    
    18    8   75 1    
    19    9   10 ar   
    20    9   14 ar   
    21   10   11 ar   
    22   10   76 1    
    23   11   12 ar   
    24   11   48 1    
    25   12   13 ar   
    26   12   77 1    
    27   13   14 ar   
    28   13   15 1    
    29   14   78 1    
    30   15   16 1    
    31   15   79 1    
    32   15   80 1    
    33   16   17 1    
    34   17   18 1    
    35   17   81 1    
    36   17   82 1    
    37   18   19 1    
    38   18   22 1    
    39   18   83 1    
    40   19   20 am   BACKBONE|DICT|INTERRES
    41   19   21 2    
    42   20   84 1    
    43   20   85 1    
    44   22   23 am   BACKBONE|DICT|INTERRES
    45   22   86 1    
    46   23   24 2    
    47   23   25 1    
    48   25   26 1    
    49   25   27 1    
    50   25   87 1    
    51   26   88 1    
    52   26   89 1    
    53   26   90 1    
    54   27   28 am   BACKBONE|DICT|INTERRES
    55   27   91 1    
    56   28   29 2    
    57   28   30 1    
    58   30   31 1    
    59   30   32 1    
    60   30   92 1    
    61   31   93 1    
    62   31   94 1    
    63   31   95 1    
    64   32   33 am   BACKBONE|DICT|INTERRES
    65   32   96 1    
    66   33   34 2    
    67   33   35 1    
    68   35   36 1    
    69   35   37 1    
    70   35   97 1    
    71   36   98 1    
    72   36   99 1    
    73   36  100 1    
    74   37   38 am   BACKBONE|DICT|INTERRES
    75   37  101 1    
    76   38   39 2    
    77   38   40 1    
    78   40   41 1    
    79   40   42 1    
    80   40  102 1    
    81   41  103 1    
    82   41  104 1    
    83   41  105 1    
    84   42   43 am   BACKBONE|DICT|INTERRES
    85   42  106 1    
    86   43   44 2    
    87   43   45 1    
    88   45   46 1    
    89   45   49 1    
    90   45  107 1    
    91   46   47 1    
    92   46  108 1    
    93   46  109 1    
    94   47   48 1    
    95   48  110 1    
    96   48  111 1    
    97   49   50 am   BACKBONE|DICT|INTERRES
    98   49  112 1    
    99   50   51 2    
   100   50   52 1    
   101   52   53 1    
   102   52   54 1    
   103   52  113 1    
   104   53  114 1    
   105   53  115 1    
   106   53  116 1    
   107   54   55 am   BACKBONE|DICT|INTERRES
   108   54  117 1    
   109   55   56 2    
   110   55   57 1    
   111   57   58 1    
   112   57   59 1    
   113   57  118 1    
   114   58  119 1    
   115   58  120 1    
   116   58  121 1    
   117   59   60 am   BACKBONE|DICT|INTERRES
   118   59  122 1    
   119   60   61 2    
   120   60   62 1    
   121   62   63 1    
   122   62   64 1    
   123   62  123 1    
   124   63  124 1    
   125   63  125 1    
   126   63  126 1    
   127   64   65 am   BACKBONE|DICT|INTERRES
   128   64  127 1    
   129   65   66 2    
@<TRIPOS>SUBSTRUCTURE
     1 UNK         1 GROUP             0       ****    0 ROOT    
