@<TRIPOS>MOLECULE
3R135
127   129    1
SMALL
USER_CHARGES


@<TRIPOS>ATOM
      1 CA        -83.2566   26.8570  -74.7414 C.3       0 UNK        -0.1998 
      2 C         -81.9108   27.4723  -75.0917 C.2       0 UNK         0.4909 
      3 O         -81.6003   27.6197  -76.2745 O.2       0 UNK        -0.5240 
      4 N         -81.1127   27.8184  -74.0706 N.am      1 UNK        -0.4739 
      5 CA        -79.7599   28.3874  -74.1554 C.3       1 UNK         0.0864 
      6 C6        -79.1018   28.4730  -72.7597 C.3       11 UNK        -0.0881 
      7 S7        -79.9631   29.5602  -71.5792 S.3       11 UNK        -0.2682 
      8 C8        -79.4284   28.8341  -69.9897 C.3       11 UNK         0.0289 
      9 C9        -77.9350   28.5256  -69.9669 C.ar      11 UNK        -0.0687 
     10 C10       -77.4882   27.1995  -70.0016 C.ar      11 UNK        -0.0823 
     11 C11       -76.1206   26.9103  -70.0411 C.ar      11 UNK        -0.0830 
     12 C12       -75.1984   27.9604  -70.0270 C.ar      11 UNK        -0.1021 
     13 C13       -75.6322   29.2886  -70.0026 C.ar      11 UNK        -0.0753 
     14 C14       -77.0015   29.5659  -69.9593 C.ar      11 UNK        -0.0933 
     15 C15       -74.6166   30.4199  -70.0348 C.3       11 UNK         0.0166 
     16 S16       -73.7720   30.5306  -71.6453 S.3       11 UNK        -0.2615 
     17 C17       -75.1015   31.1259  -72.7514 C.3       11 UNK        -0.0865 
     18 CA        -75.2466   30.2985  -74.0665 C.3       10 UNK         0.0862 
     19 C         -76.4365   30.8028  -74.9374 C.2       10 UNK         0.5551 
     20 N         -76.2949   30.9347  -76.2503 N.am      10 UNK        -0.7319 
     21 O         -77.5216   31.0512  -74.4197 O.2       10 UNK        -0.5018 
     22 N         -73.9841   30.1178  -74.8104 N.am      10 UNK        -0.4509 
     23 C         -73.1492   31.0821  -75.2289 C.2       10 UNK         0.4899 
     24 O         -73.3580   32.2839  -75.0596 O.2       10 UNK        -0.4839 
     25 CA        -71.8824   30.6571  -76.0057 C.3       9 UNK         0.0222 
     26 CB        -70.6326   31.4434  -75.5553 C.3       9 UNK        -0.1966 
     27 N         -71.6308   29.2093  -76.0149 N.am      9 UNK        -0.4218 
     28 C         -71.3150   28.4113  -74.9821 C.2       9 UNK         0.5020 
     29 O         -71.0506   28.8221  -73.8518 O.2       9 UNK        -0.5274 
     30 CA        -71.3118   26.8907  -75.2578 C.3       8 UNK         0.0270 
     31 CB        -71.7749   26.0823  -74.0266 C.3       8 UNK        -0.1976 
     32 N         -72.0811   26.4835  -76.4462 N.am      8 UNK        -0.4313 
     33 C         -73.3891   26.6773  -76.6746 C.2       8 UNK         0.5041 
     34 O         -74.1365   27.2963  -75.9154 O.2       8 UNK        -0.5577 
     35 CA        -73.9647   26.1194  -77.9867 C.3       7 UNK         0.0284 
     36 CB        -72.9368   25.9843  -79.1336 C.3       7 UNK        -0.1958 
     37 N         -74.6806   24.8671  -77.7390 N.am      7 UNK        -0.4454 
     38 C         -74.1761   23.6966  -77.3275 C.2       7 UNK         0.5089 
     39 O         -72.9733   23.4521  -77.2164 O.2       7 UNK        -0.5125 
     40 CA        -75.2300   22.6480  -76.9326 C.3       6 UNK         0.0408 
     41 CB        -74.6551   21.2224  -76.7908 C.3       6 UNK        -0.1791 
     42 N         -75.9415   23.0733  -75.7201 N.am      6 UNK        -0.4762 
     43 C         -75.4323   23.2415  -74.4866 C.2       6 UNK         0.5007 
     44 O         -74.2797   22.9402  -74.1771 O.2       6 UNK        -0.5032 
     45 CA        -76.3616   23.8449  -73.4083 C.3       5 UNK         0.0783 
     46 C46       -75.8674   25.2360  -72.9247 C.3       11 UNK        -0.0857 
     47 S47       -74.6358   25.1175  -71.5832 S.3       11 UNK        -0.2512 
     48 C48       -75.6386   25.4655  -70.0991 C.3       11 UNK         0.0225 
     49 N         -77.7551   23.9273  -73.8511 N.am      5 UNK        -0.4615 
     50 C         -78.6530   22.9379  -73.7915 C.2       4 UNK         0.5053 
     51 O         -78.3972   21.8016  -73.3942 O.2       4 UNK        -0.5105 
     52 CA        -80.0773   23.2824  -74.2485 C.3       4 UNK         0.0263 
     53 CB        -80.8091   24.0879  -73.1607 C.3       4 UNK        -0.1981 
     54 N         -80.0717   24.0522  -75.4946 N.am      4 UNK        -0.4224 
     55 C         -80.2429   23.5285  -76.7164 C.2       3 UNK         0.4895 
     56 O         -80.4046   22.3262  -76.9269 O.2       3 UNK        -0.5091 
     57 CA        -80.2601   24.4984  -77.9130 C.3       3 UNK         0.0250 
     58 CB        -81.7064   24.7768  -78.3540 C.3       3 UNK        -0.1996 
     59 N         -79.5887   25.7715  -77.6403 N.am      3 UNK        -0.4254 
     60 C         -78.2576   25.9318  -77.6500 C.2       2 UNK         0.5004 
     61 O         -77.4634   25.0319  -77.9218 O.2       2 UNK        -0.5226 
     62 CA        -77.7057   27.3131  -77.2493 C.3       2 UNK         0.0269 
     63 CB        -77.5123   28.1890  -78.4968 C.3       2 UNK        -0.1926 
     64 N         -78.5242   28.0290  -76.2640 N.am      2 UNK        -0.4687 
     65 C         -78.8528   27.5375  -75.0623 C.2       1 UNK         0.5165 
     66 O         -78.5071   26.4226  -74.6702 O.2       1 UNK        -0.5079 
     67 H67       -84.0632   27.4558  -75.1631 H         1 UNK         0.0900 
     68 H68       -83.3265   25.8511  -75.1544 H         1 UNK         0.0900 
     69 H69       -83.4085   26.7926  -73.6641 H         1 UNK         0.0900 
     70 H70       -81.4464   27.6816  -73.1274 H         1 UNK         0.2959 
     71 H71       -79.8375   29.3932  -74.5728 H         1 UNK         0.1079 
     72 H72       -78.0738   28.8334  -72.8397 H         1 UNK         0.0837 
     73 H73       -79.0401   27.4739  -72.3236 H         1 UNK         0.0837 
     74 H74       -80.0100   27.9299  -69.8037 H         1 UNK         0.0685 
     75 H75       -79.6705   29.5260  -69.1819 H         1 UNK         0.0685 
     76 H76       -78.2077   26.3922  -70.0186 H         1 UNK         0.1434 
     77 H77       -74.1391   27.7445  -70.0649 H         1 UNK         0.1329 
     78 H78       -77.3465   30.5908  -69.9483 H         1 UNK         0.1335 
     79 H79       -75.0860   31.3779  -69.8054 H         1 UNK         0.0680 
     80 H80       -73.8700   30.2505  -69.2576 H         1 UNK         0.0680 
     81 H81       -74.9110   32.1760  -72.9767 H         1 UNK         0.1032 
     82 H82       -76.0458   31.1147  -72.2052 H         1 UNK         0.1032 
     83 H83       -75.5340   29.2880  -73.7722 H         1 UNK         0.0461 
     84 H84       -77.0673   31.2741  -76.7997 H         1 UNK         0.3453 
     85 H85       -75.4108   30.7314  -76.6862 H         1 UNK         0.3453 
     86 H86       -73.7731   29.1549  -75.0522 H         1 UNK         0.2984 
     87 H87       -72.0737   30.9245  -77.0459 H         1 UNK         0.0554 
     88 H88       -70.7639   32.5137  -75.7189 H         1 UNK         0.0847 
     89 H89       -69.7472   31.1389  -76.1131 H         1 UNK         0.0847 
     90 H90       -70.4263   31.3046  -74.4937 H         1 UNK         0.0847 
     91 H91       -71.8183   28.7491  -76.8943 H         1 UNK         0.3141 
     92 H92       -70.2738   26.6228  -75.4597 H         1 UNK         0.0743 
     93 H93       -71.1120   26.2422  -73.1755 H         1 UNK         0.0784 
     94 H94       -71.7864   25.0116  -74.2321 H         1 UNK         0.0784 
     95 H95       -72.7790   26.3704  -73.7134 H         1 UNK         0.0784 
     96 H96       -71.5695   25.9444  -77.1321 H         1 UNK         0.3213 
     97 H97       -74.7149   26.8386  -78.3171 H         1 UNK         0.0855 
     98 H98       -72.1628   25.2447  -78.9296 H         1 UNK         0.0814 
     99 H99       -72.4393   26.9357  -79.3263 H         1 UNK         0.0814 
    100 H100      -73.4292   25.6904  -80.0606 H         1 UNK         0.0814 
    101 H101      -75.6980   24.9337  -77.7854 H         1 UNK         0.3105 
    102 H102      -75.9708   22.6195  -77.7333 H         1 UNK         0.0547 
    103 H103      -75.4312   20.5075  -76.5185 H         1 UNK         0.0837 
    104 H104      -73.8680   21.1653  -76.0388 H         1 UNK         0.0837 
    105 H105      -74.2208   20.8879  -77.7334 H         1 UNK         0.0837 
    106 H106      -76.8965   23.3713  -75.8633 H         1 UNK         0.3020 
    107 H107      -76.3324   23.1563  -72.5603 H         1 UNK         0.1245 
    108 H108      -76.7039   25.8328  -72.5582 H         1 UNK         0.0781 
    109 H109      -75.4446   25.8188  -73.7464 H         1 UNK         0.0781 
    110 H110      -75.0356   25.2616  -69.2133 H         1 UNK         0.0836 
    111 H111      -76.4774   24.7685  -70.0655 H         1 UNK         0.0836 
    112 H112      -78.0555   24.8457  -74.1793 H         1 UNK         0.3022 
    113 H113      -80.6194   22.3450  -74.3917 H         1 UNK         0.0747 
    114 H114      -81.8426   24.2858  -73.4448 H         1 UNK         0.0793 
    115 H115      -80.8328   23.5385  -72.2186 H         1 UNK         0.0793 
    116 H116      -80.3259   25.0464  -72.9668 H         1 UNK         0.0793 
    117 H117      -79.8666   25.0407  -75.4150 H         1 UNK         0.3047 
    118 H118      -79.7450   24.0041  -78.7400 H         1 UNK         0.0822 
    119 H119      -81.7361   25.4179  -79.2351 H         1 UNK         0.0807 
    120 H120      -82.2835   25.2625  -77.5666 H         1 UNK         0.0807 
    121 H121      -82.2217   23.8502  -78.6110 H         1 UNK         0.0807 
    122 H122      -80.1771   26.5531  -77.3671 H         1 UNK         0.2946 
    123 H123      -76.7295   27.1451  -76.7895 H         1 UNK         0.1144 
    124 H124      -76.9828   29.1104  -78.2585 H         1 UNK         0.0793 
    125 H125      -78.4661   28.4563  -78.9533 H         1 UNK         0.0793 
    126 H126      -76.9242   27.6694  -79.2547 H         1 UNK         0.0793 
    127 H127      -78.8771   28.9354  -76.5359 H         1 UNK         0.2896 
@<TRIPOS>BOND
     1    1    2 1    
     2    1   67 1    
     3    1   68 1    
     4    1   69 1    
     5    2    3 2    
     6    2    4 am   BACKBONE|DICT|INTERRES
     7    4    5 1    
     8    4   70 1    
     9    5    6 1    
    10    5   65 1    
    11    5   71 1    
    12    6    7 1    
    13    6   72 1    
    14    6   73 1    
    15    7    8 1    
    16    8    9 1    
    17    8   74 1    
    18    8   75 1    
    19    9   10 ar   
    20    9   14 ar   
    21   10   11 ar   
    22   10   76 1    
    23   11   12 ar   
    24   11   48 1    
    25   12   13 ar   
    26   12   77 1    
    27   13   14 ar   
    28   13   15 1    
    29   14   78 1    
    30   15   16 1    
    31   15   79 1    
    32   15   80 1    
    33   16   17 1    
    34   17   18 1    
    35   17   81 1    
    36   17   82 1    
    37   18   19 1    
    38   18   22 1    
    39   18   83 1    
    40   19   20 am   BACKBONE|DICT|INTERRES
    41   19   21 2    
    42   20   84 1    
    43   20   85 1    
    44   22   23 am   BACKBONE|DICT|INTERRES
    45   22   86 1    
    46   23   24 2    
    47   23   25 1    
    48   25   26 1    
    49   25   27 1    
    50   25   87 1    
    51   26   88 1    
    52   26   89 1    
    53   26   90 1    
    54   27   28 am   BACKBONE|DICT|INTERRES
    55   27   91 1    
    56   28   29 2    
    57   28   30 1    
    58   30   31 1    
    59   30   32 1    
    60   30   92 1    
    61   31   93 1    
    62   31   94 1    
    63   31   95 1    
    64   32   33 am   BACKBONE|DICT|INTERRES
    65   32   96 1    
    66   33   34 2    
    67   33   35 1    
    68   35   36 1    
    69   35   37 1    
    70   35   97 1    
    71   36   98 1    
    72   36   99 1    
    73   36  100 1    
    74   37   38 am   BACKBONE|DICT|INTERRES
    75   37  101 1    
    76   38   39 2    
    77   38   40 1    
    78   40   41 1    
    79   40   42 1    
    80   40  102 1    
    81   41  103 1    
    82   41  104 1    
    83   41  105 1    
    84   42   43 am   BACKBONE|DICT|INTERRES
    85   42  106 1    
    86   43   44 2    
    87   43   45 1    
    88   45   46 1    
    89   45   49 1    
    90   45  107 1    
    91   46   47 1    
    92   46  108 1    
    93   46  109 1    
    94   47   48 1    
    95   48  110 1    
    96   48  111 1    
    97   49   50 am   BACKBONE|DICT|INTERRES
    98   49  112 1    
    99   50   51 2    
   100   50   52 1    
   101   52   53 1    
   102   52   54 1    
   103   52  113 1    
   104   53  114 1    
   105   53  115 1    
   106   53  116 1    
   107   54   55 am   BACKBONE|DICT|INTERRES
   108   54  117 1    
   109   55   56 2    
   110   55   57 1    
   111   57   58 1    
   112   57   59 1    
   113   57  118 1    
   114   58  119 1    
   115   58  120 1    
   116   58  121 1    
   117   59   60 am   BACKBONE|DICT|INTERRES
   118   59  122 1    
   119   60   61 2    
   120   60   62 1    
   121   62   63 1    
   122   62   64 1    
   123   62  123 1    
   124   63  124 1    
   125   63  125 1    
   126   63  126 1    
   127   64   65 am   BACKBONE|DICT|INTERRES
   128   64  127 1    
   129   65   66 2    
@<TRIPOS>SUBSTRUCTURE
     1 UNK         1 GROUP             0       ****    0 ROOT    
