@<TRIPOS>MOLECULE
3R135
127   129    1
SMALL
USER_CHARGES


@<TRIPOS>ATOM
      1 CA        -83.6925   24.1764  -73.4380 C.3       0 UNK        -0.1998 
      2 C         -82.9059   25.4184  -73.8251 C.2       0 UNK         0.4909 
      3 O         -82.6725   25.6622  -75.0097 O.2       0 UNK        -0.5240 
      4 N         -82.4970   26.2089  -72.8265 N.am      1 UNK        -0.4739 
      5 CA        -81.7545   27.4627  -72.9889 C.3       1 UNK         0.0864 
      6 C6        -81.6814   28.2903  -71.6765 C.3       11 UNK        -0.0881 
      7 S7        -81.3282   27.3224  -70.1674 S.3       11 UNK        -0.2682 
      8 C8        -80.0782   28.3551  -69.3383 C.3       11 UNK         0.0289 
      9 C9        -78.6903   28.1487  -69.9246 C.ar      11 UNK        -0.0687 
     10 C10       -78.0687   26.9037  -69.8024 C.ar      11 UNK        -0.0823 
     11 C11       -76.7932   26.6925  -70.3278 C.ar      11 UNK        -0.0830 
     12 C12       -76.1187   27.7498  -70.9454 C.ar      11 UNK        -0.1021 
     13 C13       -76.7335   28.9977  -71.0862 C.ar      11 UNK        -0.0753 
     14 C14       -78.0219   29.1916  -70.5745 C.ar      11 UNK        -0.0933 
     15 C15       -76.0080   30.1302  -71.7989 C.3       11 UNK         0.0166 
     16 S16       -75.7074   29.7253  -73.5475 S.3       11 UNK        -0.2615 
     17 C17       -75.3305   31.3714  -74.2479 C.3       11 UNK        -0.0865 
     18 CA        -73.8307   31.5948  -74.5729 C.3       10 UNK         0.0862 
     19 C         -72.9768   31.8603  -73.2964 C.2       10 UNK         0.5551 
     20 N         -71.8948   31.1346  -73.0407 N.am      10 UNK        -0.7319 
     21 O         -73.2982   32.7609  -72.5249 O.2       10 UNK        -0.5018 
     22 N         -73.3172   30.5428  -75.4617 N.am      10 UNK        -0.4509 
     23 C         -72.3015   30.6809  -76.3218 C.2       10 UNK         0.4899 
     24 O         -71.7360   31.7527  -76.5460 O.2       10 UNK        -0.4839 
     25 CA        -71.8380   29.3938  -77.0380 C.3       9 UNK         0.0222 
     26 CB        -70.4362   29.5353  -77.6680 C.3       9 UNK        -0.1966 
     27 N         -71.8942   28.1965  -76.1860 N.am      9 UNK        -0.4218 
     28 C         -71.3011   28.0225  -74.9920 C.2       9 UNK         0.5020 
     29 O         -70.6266   28.8848  -74.4278 O.2       9 UNK        -0.5274 
     30 CA        -71.5124   26.6740  -74.2843 C.3       8 UNK         0.0270 
     31 CB        -72.5528   26.8209  -73.1600 C.3       8 UNK        -0.1976 
     32 N         -71.9164   25.6062  -75.2053 N.am      8 UNK        -0.4313 
     33 C         -71.0590   24.9469  -76.0016 C.2       8 UNK         0.5041 
     34 O         -69.8446   25.1532  -76.0044 O.2       8 UNK        -0.5577 
     35 CA        -71.6233   23.8740  -76.9533 C.3       7 UNK         0.0284 
     36 CB        -71.3392   22.4671  -76.4018 C.3       7 UNK        -0.1958 
     37 N         -73.0576   24.0002  -77.2156 N.am      7 UNK        -0.4454 
     38 C         -73.6288   24.9763  -77.9335 C.2       7 UNK         0.5089 
     39 O         -73.0007   25.8780  -78.4884 O.2       7 UNK        -0.5125 
     40 CA        -75.1679   24.9722  -77.9875 C.3       6 UNK         0.0408 
     41 CB        -75.6664   24.1617  -79.1928 C.3       6 UNK        -0.1791 
     42 N         -75.8007   24.4659  -76.7620 N.am      6 UNK        -0.4762 
     43 C         -75.6386   24.9970  -75.5414 C.2       6 UNK         0.5007 
     44 O         -74.8849   25.9475  -75.3282 O.2       6 UNK        -0.5032 
     45 CA        -76.4043   24.3430  -74.3691 C.3       5 UNK         0.0783 
     46 C46       -76.2655   25.1573  -73.0619 C.3       11 UNK        -0.0857 
     47 S47       -76.8427   24.2448  -71.5947 S.3       11 UNK        -0.2512 
     48 C48       -76.1728   25.3058  -70.2728 C.3       11 UNK         0.0225 
     49 N         -77.8112   24.1051  -74.7109 N.am      5 UNK        -0.4615 
     50 C         -78.2638   23.0346  -75.3747 C.2       4 UNK         0.5053 
     51 O         -77.5351   22.1325  -75.7882 O.2       4 UNK        -0.5105 
     52 CA        -79.7688   22.9895  -75.6711 C.3       4 UNK         0.0263 
     53 CB        -80.5698   22.6852  -74.3964 C.3       4 UNK        -0.1981 
     54 N         -80.2292   24.2397  -76.2792 N.am      4 UNK        -0.4224 
     55 C         -79.9399   24.6095  -77.5367 C.2       3 UNK         0.4895 
     56 O         -79.3652   23.8852  -78.3498 O.2       3 UNK        -0.5091 
     57 CA        -80.3286   26.0374  -77.9526 C.3       3 UNK         0.0250 
     58 CB        -81.7924   26.1031  -78.4166 C.3       3 UNK        -0.1996 
     59 N         -80.0968   27.0009  -76.8741 N.am      3 UNK        -0.4254 
     60 C         -78.8786   27.4165  -76.4923 C.2       2 UNK         0.5004 
     61 O         -77.8443   27.1071  -77.0801 O.2       2 UNK        -0.5226 
     62 CA        -78.7841   28.3396  -75.2628 C.3       2 UNK         0.0269 
     63 CB        -78.5252   29.7875  -75.7108 C.3       2 UNK        -0.1926 
     64 N         -79.9760   28.3196  -74.4121 N.am      2 UNK        -0.4687 
     65 C         -80.3815   27.2775  -73.6741 C.2       1 UNK         0.5165 
     66 O         -79.7555   26.2167  -73.5833 O.2       1 UNK        -0.5079 
     67 H67       -84.6717   24.4557  -73.0415 H         1 UNK         0.0900 
     68 H68       -83.8492   23.5328  -74.3067 H         1 UNK         0.0900 
     69 H69       -83.1584   23.6017  -72.6775 H         1 UNK         0.0900 
     70 H70       -82.6704   25.9395  -71.8680 H         1 UNK         0.2959 
     71 H71       -82.3511   28.0531  -73.6888 H         1 UNK         0.1079 
     72 H72       -82.6459   28.7744  -71.5138 H         1 UNK         0.0837 
     73 H73       -80.9661   29.1099  -71.7710 H         1 UNK         0.0837 
     74 H74       -80.0537   28.0899  -68.2802 H         1 UNK         0.0685 
     75 H75       -80.3773   29.4036  -69.3823 H         1 UNK         0.0685 
     76 H76       -78.5935   26.0880  -69.3238 H         1 UNK         0.1434 
     77 H77       -75.1311   27.5933  -71.3573 H         1 UNK         0.1329 
     78 H78       -78.5028   30.1545  -70.6785 H         1 UNK         0.1335 
     79 H79       -75.0558   30.3260  -71.3044 H         1 UNK         0.0680 
     80 H80       -76.5903   31.0499  -71.7333 H         1 UNK         0.0680 
     81 H81       -75.7096   32.1599  -73.5954 H         1 UNK         0.1032 
     82 H82       -75.9071   31.4695  -75.1686 H         1 UNK         0.1032 
     83 H83       -73.7815   32.5316  -75.1314 H         1 UNK         0.0461 
     84 H84       -71.5870   30.3985  -73.6681 H         1 UNK         0.3453 
     85 H85       -71.3591   31.3344  -72.2116 H         1 UNK         0.3453 
     86 H86       -73.7169   29.6260  -75.3211 H         1 UNK         0.2984 
     87 H87       -72.5490   29.2240  -77.8481 H         1 UNK         0.0554 
     88 H88       -70.4129   30.3450  -78.3985 H         1 UNK         0.0847 
     89 H89       -70.1418   28.6238  -78.1883 H         1 UNK         0.0847 
     90 H90       -69.6762   29.7525  -76.9162 H         1 UNK         0.0847 
     91 H91       -72.4330   27.4245  -76.5570 H         1 UNK         0.3141 
     92 H92       -70.5627   26.3939  -73.8233 H         1 UNK         0.0743 
     93 H93       -72.7350   25.8714  -72.6566 H         1 UNK         0.0784 
     94 H94       -72.2061   27.5263  -72.4038 H         1 UNK         0.0784 
     95 H95       -73.5056   27.1982  -73.5317 H         1 UNK         0.0784 
     96 H96       -72.9127   25.4292  -75.2827 H         1 UNK         0.3213 
     97 H97       -71.0979   23.9805  -77.9051 H         1 UNK         0.0855 
     98 H98       -71.8487   22.2936  -75.4530 H         1 UNK         0.0814 
     99 H99       -70.2716   22.3246  -76.2281 H         1 UNK         0.0814 
    100 H100      -71.6560   21.6937  -77.1015 H         1 UNK         0.0814 
    101 H101      -73.6620   23.3078  -76.7977 H         1 UNK         0.3105 
    102 H102      -75.4908   26.0068  -78.1169 H         1 UNK         0.0547 
    103 H103      -75.4143   23.1049  -79.1034 H         1 UNK         0.0837 
    104 H104      -75.2221   24.5268  -80.1198 H         1 UNK         0.0837 
    105 H105      -76.7481   24.2412  -79.3013 H         1 UNK         0.0837 
    106 H106      -76.4274   23.6758  -76.8559 H         1 UNK         0.3020 
    107 H107      -75.9171   23.3797  -74.2007 H         1 UNK         0.1245 
    108 H108      -76.8164   26.0966  -73.1419 H         1 UNK         0.0781 
    109 H109      -75.2233   25.4221  -72.8781 H         1 UNK         0.0781 
    110 H110      -75.0867   25.3626  -70.3610 H         1 UNK         0.0836 
    111 H111      -76.3785   24.8456  -69.3053 H         1 UNK         0.0836 
    112 H112      -78.4728   24.8082  -74.3958 H         1 UNK         0.3022 
    113 H113      -79.9451   22.1764  -76.3789 H         1 UNK         0.0747 
    114 H114      -81.6232   22.5309  -74.6261 H         1 UNK         0.0793 
    115 H115      -80.2094   21.7736  -73.9174 H         1 UNK         0.0793 
    116 H116      -80.4930   23.4899  -73.6638 H         1 UNK         0.0793 
    117 H117      -80.7443   24.8822  -75.6881 H         1 UNK         0.3047 
    118 H118      -79.6978   26.3164  -78.8000 H         1 UNK         0.0822 
    119 H119      -82.0542   27.1030  -78.7631 H         1 UNK         0.0807 
    120 H120      -82.4866   25.8311  -77.6216 H         1 UNK         0.0807 
    121 H121      -81.9664   25.4174  -79.2469 H         1 UNK         0.0807 
    122 H122      -80.9020   27.2947  -76.3400 H         1 UNK         0.2946 
    123 H123      -77.9350   27.9978  -74.6660 H         1 UNK         0.1144 
    124 H124      -78.4104   30.4539  -74.8556 H         1 UNK         0.0793 
    125 H125      -79.3362   30.1717  -76.3308 H         1 UNK         0.0793 
    126 H126      -77.6071   29.8534  -76.2967 H         1 UNK         0.0793 
    127 H127      -80.5463   29.1531  -74.4331 H         1 UNK         0.2896 
@<TRIPOS>BOND
     1    1    2 1    
     2    1   67 1    
     3    1   68 1    
     4    1   69 1    
     5    2    3 2    
     6    2    4 am   BACKBONE|DICT|INTERRES
     7    4    5 1    
     8    4   70 1    
     9    5    6 1    
    10    5   65 1    
    11    5   71 1    
    12    6    7 1    
    13    6   72 1    
    14    6   73 1    
    15    7    8 1    
    16    8    9 1    
    17    8   74 1    
    18    8   75 1    
    19    9   10 ar   
    20    9   14 ar   
    21   10   11 ar   
    22   10   76 1    
    23   11   12 ar   
    24   11   48 1    
    25   12   13 ar   
    26   12   77 1    
    27   13   14 ar   
    28   13   15 1    
    29   14   78 1    
    30   15   16 1    
    31   15   79 1    
    32   15   80 1    
    33   16   17 1    
    34   17   18 1    
    35   17   81 1    
    36   17   82 1    
    37   18   19 1    
    38   18   22 1    
    39   18   83 1    
    40   19   20 am   BACKBONE|DICT|INTERRES
    41   19   21 2    
    42   20   84 1    
    43   20   85 1    
    44   22   23 am   BACKBONE|DICT|INTERRES
    45   22   86 1    
    46   23   24 2    
    47   23   25 1    
    48   25   26 1    
    49   25   27 1    
    50   25   87 1    
    51   26   88 1    
    52   26   89 1    
    53   26   90 1    
    54   27   28 am   BACKBONE|DICT|INTERRES
    55   27   91 1    
    56   28   29 2    
    57   28   30 1    
    58   30   31 1    
    59   30   32 1    
    60   30   92 1    
    61   31   93 1    
    62   31   94 1    
    63   31   95 1    
    64   32   33 am   BACKBONE|DICT|INTERRES
    65   32   96 1    
    66   33   34 2    
    67   33   35 1    
    68   35   36 1    
    69   35   37 1    
    70   35   97 1    
    71   36   98 1    
    72   36   99 1    
    73   36  100 1    
    74   37   38 am   BACKBONE|DICT|INTERRES
    75   37  101 1    
    76   38   39 2    
    77   38   40 1    
    78   40   41 1    
    79   40   42 1    
    80   40  102 1    
    81   41  103 1    
    82   41  104 1    
    83   41  105 1    
    84   42   43 am   BACKBONE|DICT|INTERRES
    85   42  106 1    
    86   43   44 2    
    87   43   45 1    
    88   45   46 1    
    89   45   49 1    
    90   45  107 1    
    91   46   47 1    
    92   46  108 1    
    93   46  109 1    
    94   47   48 1    
    95   48  110 1    
    96   48  111 1    
    97   49   50 am   BACKBONE|DICT|INTERRES
    98   49  112 1    
    99   50   51 2    
   100   50   52 1    
   101   52   53 1    
   102   52   54 1    
   103   52  113 1    
   104   53  114 1    
   105   53  115 1    
   106   53  116 1    
   107   54   55 am   BACKBONE|DICT|INTERRES
   108   54  117 1    
   109   55   56 2    
   110   55   57 1    
   111   57   58 1    
   112   57   59 1    
   113   57  118 1    
   114   58  119 1    
   115   58  120 1    
   116   58  121 1    
   117   59   60 am   BACKBONE|DICT|INTERRES
   118   59  122 1    
   119   60   61 2    
   120   60   62 1    
   121   62   63 1    
   122   62   64 1    
   123   62  123 1    
   124   63  124 1    
   125   63  125 1    
   126   63  126 1    
   127   64   65 am   BACKBONE|DICT|INTERRES
   128   64  127 1    
   129   65   66 2    
@<TRIPOS>SUBSTRUCTURE
     1 UNK         1 GROUP             0       ****    0 ROOT    
