@<TRIPOS>MOLECULE
3R135
127   129    1
SMALL
USER_CHARGES


@<TRIPOS>ATOM
      1 CA        -78.2023   28.4800  -75.7296 C.3       0 UNK        -0.1998 
      2 C         -78.9977   27.5812  -74.7980 C.2       0 UNK         0.4909 
      3 O         -78.8209   26.3597  -74.8214 O.2       0 UNK        -0.5240 
      4 N         -79.8786   28.1743  -73.9819 N.am      1 UNK        -0.4739 
      5 CA        -80.8128   27.4544  -73.1111 C.3       1 UNK         0.0864 
      6 C6        -81.5178   28.3991  -72.1008 C.3       11 UNK        -0.0881 
      7 S7        -81.5444   27.6683  -70.4303 S.3       11 UNK        -0.2682 
      8 C8        -80.5303   28.8485  -69.4806 C.3       11 UNK         0.0289 
      9 C9        -79.1113   28.9825  -70.0205 C.ar      11 UNK        -0.0687 
     10 C10       -78.1901   27.9451  -69.8535 C.ar      11 UNK        -0.0823 
     11 C11       -76.8783   28.0785  -70.3196 C.ar      11 UNK        -0.0830 
     12 C12       -76.4869   29.2637  -70.9516 C.ar      11 UNK        -0.1021 
     13 C13       -77.3988   30.3102  -71.1225 C.ar      11 UNK        -0.0753 
     14 C14       -78.7094   30.1601  -70.6587 C.ar      11 UNK        -0.0933 
     15 C15       -76.9683   31.6229  -71.7633 C.3       11 UNK         0.0166 
     16 S16       -76.7756   31.4857  -73.5692 S.3       11 UNK        -0.2615 
     17 C17       -74.9790   31.1947  -73.7409 C.3       11 UNK        -0.0865 
     18 CA        -74.6451   30.0043  -74.6886 C.3       10 UNK         0.0862 
     19 C         -74.6223   30.3662  -76.2044 C.2       10 UNK         0.5551 
     20 N         -75.4971   31.2544  -76.6528 N.am      10 UNK        -0.7319 
     21 O         -73.8597   29.8092  -76.9928 O.2       10 UNK        -0.5018 
     22 N         -73.4614   29.2469  -74.2635 N.am      10 UNK        -0.4509 
     23 C         -72.2320   29.7312  -74.0498 C.2       10 UNK         0.4899 
     24 O         -71.9308   30.9220  -74.1288 O.2       10 UNK        -0.4839 
     25 CA        -71.1566   28.7059  -73.6725 C.3       9 UNK         0.0222 
     26 CB        -71.3144   28.2589  -72.2062 C.3       9 UNK        -0.1966 
     27 N         -71.1926   27.5526  -74.5719 N.am      9 UNK        -0.4218 
     28 C         -70.1673   26.7246  -74.8075 C.2       9 UNK         0.5020 
     29 O         -69.0712   26.8073  -74.2509 O.2       9 UNK        -0.5274 
     30 CA        -70.3970   25.6223  -75.8563 C.3       8 UNK         0.0270 
     31 CB        -71.0445   24.3852  -75.2126 C.3       8 UNK        -0.1976 
     32 N         -71.2212   26.0780  -76.9777 N.am      8 UNK        -0.4313 
     33 C         -70.8411   26.9713  -77.9005 C.2       8 UNK         0.5041 
     34 O         -69.7076   27.4506  -77.9520 O.2       8 UNK        -0.5577 
     35 CA        -71.8890   27.4413  -78.9273 C.3       7 UNK         0.0284 
     36 CB        -71.7246   26.7091  -80.2742 C.3       7 UNK        -0.1958 
     37 N         -73.2780   27.4025  -78.4460 N.am      7 UNK        -0.4454 
     38 C         -74.0546   26.3394  -78.2021 C.2       7 UNK         0.5089 
     39 O         -73.7004   25.1692  -78.3537 O.2       7 UNK        -0.5125 
     40 CA        -75.4523   26.6387  -77.6371 C.3       6 UNK         0.0408 
     41 CB        -76.5442   26.2219  -78.6354 C.3       6 UNK        -0.1791 
     42 N         -75.7015   25.9768  -76.3547 N.am      6 UNK        -0.4762 
     43 C         -74.9324   26.0336  -75.2561 C.2       6 UNK         0.5007 
     44 O         -73.8626   26.6417  -75.1984 O.2       6 UNK        -0.5032 
     45 CA        -75.4517   25.3349  -73.9865 C.3       5 UNK         0.0783 
     46 C46       -75.6890   26.3740  -72.8630 C.3       11 UNK        -0.0857 
     47 S47       -76.1641   25.5848  -71.2909 S.3       11 UNK        -0.2512 
     48 C48       -75.8819   26.9465  -70.1183 C.3       11 UNK         0.0225 
     49 N         -76.6648   24.5607  -74.2669 N.am      5 UNK        -0.4615 
     50 C         -76.6931   23.2371  -74.4607 C.2       4 UNK         0.5053 
     51 O         -75.6923   22.5206  -74.4498 O.2       4 UNK        -0.5105 
     52 CA        -78.0648   22.6003  -74.7115 C.3       4 UNK         0.0263 
     53 CB        -78.7421   22.2603  -73.3732 C.3       4 UNK        -0.1981 
     54 N         -78.9456   23.4855  -75.4738 N.am      4 UNK        -0.4224 
     55 C         -79.3399   23.2838  -76.7373 C.2       3 UNK         0.4895 
     56 O         -78.9218   22.3700  -77.4509 O.2       3 UNK        -0.5091 
     57 CA        -80.4058   24.2626  -77.2757 C.3       3 UNK         0.0250 
     58 CB        -81.1118   23.7460  -78.5469 C.3       3 UNK        -0.1996 
     59 N         -81.3905   24.6458  -76.2526 N.am      3 UNK        -0.4254 
     60 C         -82.1844   23.8407  -75.5260 C.2       2 UNK         0.5004 
     61 O         -82.2758   22.6253  -75.7065 O.2       2 UNK        -0.5226 
     62 CA        -82.9686   24.5042  -74.3703 C.3       2 UNK         0.0269 
     63 CB        -83.5873   23.4734  -73.4069 C.3       2 UNK        -0.1926 
     64 N         -82.1288   25.4273  -73.5944 N.am      2 UNK        -0.4687 
     65 C         -81.8363   26.6794  -73.9653 C.2       1 UNK         0.5165 
     66 O         -82.3133   27.2099  -74.9721 O.2       1 UNK        -0.5079 
     67 H67       -78.5217   28.3272  -76.7597 H         1 UNK         0.0900 
     68 H68       -77.1448   28.2418  -75.6631 H         1 UNK         0.0900 
     69 H69       -78.3280   29.5345  -75.4853 H         1 UNK         0.0900 
     70 H70       -79.9942   29.1763  -74.0209 H         1 UNK         0.2959 
     71 H71       -80.2058   26.7272  -72.5657 H         1 UNK         0.1079 
     72 H72       -81.0155   29.3654  -72.0558 H         1 UNK         0.0837 
     73 H73       -82.5427   28.6361  -72.3948 H         1 UNK         0.0837 
     74 H74       -81.0329   29.8170  -69.4686 H         1 UNK         0.0685 
     75 H75       -80.4875   28.5173  -68.4421 H         1 UNK         0.0685 
     76 H76       -78.4952   27.0322  -69.3601 H         1 UNK         0.1434 
     77 H77       -75.4709   29.3742  -71.3031 H         1 UNK         0.1329 
     78 H78       -79.4157   30.9699  -70.7805 H         1 UNK         0.1335 
     79 H79       -77.7113   32.3966  -71.5640 H         1 UNK         0.0680 
     80 H80       -76.0462   31.9788  -71.3019 H         1 UNK         0.0680 
     81 H81       -74.5650   31.0024  -72.7511 H         1 UNK         0.1032 
     82 H82       -74.4936   32.1131  -74.0767 H         1 UNK         0.1032 
     83 H83       -75.4443   29.2721  -74.5867 H         1 UNK         0.0461 
     84 H84       -75.5074   31.4886  -77.6327 H         1 UNK         0.3453 
     85 H85       -76.1426   31.6989  -76.0170 H         1 UNK         0.3453 
     86 H86       -73.5847   28.2404  -74.2810 H         1 UNK         0.2984 
     87 H87       -70.1888   29.2002  -73.7825 H         1 UNK         0.0554 
     88 H88       -70.4864   27.6229  -71.8930 H         1 UNK         0.0847 
     89 H89       -72.2393   27.7026  -72.0495 H         1 UNK         0.0847 
     90 H90       -71.3311   29.1185  -71.5349 H         1 UNK         0.0847 
     91 H91       -72.0625   27.3852  -75.0698 H         1 UNK         0.3141 
     92 H92       -69.4217   25.3304  -76.2516 H         1 UNK         0.0743 
     93 H93       -72.0303   24.6083  -74.8036 H         1 UNK         0.0784 
     94 H94       -71.1566   23.5755  -75.9339 H         1 UNK         0.0784 
     95 H95       -70.4308   24.0067  -74.3940 H         1 UNK         0.0784 
     96 H96       -72.1629   25.7084  -77.0458 H         1 UNK         0.3213 
     97 H97       -71.6815   28.4979  -79.1054 H         1 UNK         0.0855 
     98 H98       -70.7241   26.8664  -80.6792 H         1 UNK         0.0814 
     99 H99       -72.4350   27.0753  -81.0151 H         1 UNK         0.0814 
    100 H100      -71.8643   25.6323  -80.1763 H         1 UNK         0.0814 
    101 H101      -73.6336   28.3096  -78.1485 H         1 UNK         0.3105 
    102 H102      -75.5428   27.7127  -77.4704 H         1 UNK         0.0547 
    103 H103      -76.5354   25.1459  -78.8156 H         1 UNK         0.0837 
    104 H104      -77.5375   26.4942  -78.2792 H         1 UNK         0.0837 
    105 H105      -76.4006   26.7141  -79.5983 H         1 UNK         0.0837 
    106 H106      -76.5463   25.4284  -76.2926 H         1 UNK         0.3020 
    107 H107      -74.6517   24.6667  -73.6592 H         1 UNK         0.1245 
    108 H108      -76.4685   27.0847  -73.1438 H         1 UNK         0.0781 
    109 H109      -74.7855   26.9597  -72.6839 H         1 UNK         0.0781 
    110 H110      -74.8561   27.3063  -70.2137 H         1 UNK         0.0836 
    111 H111      -75.9735   26.5605  -69.1020 H         1 UNK         0.0836 
    112 H112      -77.5264   25.0985  -74.3106 H         1 UNK         0.3022 
    113 H113      -77.9021   21.6669  -75.2548 H         1 UNK         0.0747 
    114 H114      -79.7030   21.7697  -73.5309 H         1 UNK         0.0793 
    115 H115      -78.1237   21.5815  -72.7841 H         1 UNK         0.0793 
    116 H116      -78.9164   23.1513  -72.7682 H         1 UNK         0.0793 
    117 H117      -79.2829   24.3179  -75.0043 H         1 UNK         0.3047 
    118 H118      -79.8696   25.1751  -77.5413 H         1 UNK         0.0822 
    119 H119      -81.8441   24.4651  -78.9138 H         1 UNK         0.0807 
    120 H120      -81.6286   22.8027  -78.3671 H         1 UNK         0.0807 
    121 H121      -80.3952   23.5761  -79.3514 H         1 UNK         0.0807 
    122 H122      -81.4183   25.6328  -76.0213 H         1 UNK         0.2946 
    123 H123      -83.7886   25.0634  -74.8274 H         1 UNK         0.1144 
    124 H124      -82.8241   22.8518  -72.9368 H         1 UNK         0.0793 
    125 H125      -84.2733   22.8075  -73.9322 H         1 UNK         0.0793 
    126 H126      -84.1576   23.9613  -72.6162 H         1 UNK         0.0793 
    127 H127      -81.6972   25.0498  -72.7625 H         1 UNK         0.2896 
@<TRIPOS>BOND
     1    1    2 1    
     2    1   67 1    
     3    1   68 1    
     4    1   69 1    
     5    2    3 2    
     6    2    4 am   BACKBONE|DICT|INTERRES
     7    4    5 1    
     8    4   70 1    
     9    5    6 1    
    10    5   65 1    
    11    5   71 1    
    12    6    7 1    
    13    6   72 1    
    14    6   73 1    
    15    7    8 1    
    16    8    9 1    
    17    8   74 1    
    18    8   75 1    
    19    9   10 ar   
    20    9   14 ar   
    21   10   11 ar   
    22   10   76 1    
    23   11   12 ar   
    24   11   48 1    
    25   12   13 ar   
    26   12   77 1    
    27   13   14 ar   
    28   13   15 1    
    29   14   78 1    
    30   15   16 1    
    31   15   79 1    
    32   15   80 1    
    33   16   17 1    
    34   17   18 1    
    35   17   81 1    
    36   17   82 1    
    37   18   19 1    
    38   18   22 1    
    39   18   83 1    
    40   19   20 am   BACKBONE|DICT|INTERRES
    41   19   21 2    
    42   20   84 1    
    43   20   85 1    
    44   22   23 am   BACKBONE|DICT|INTERRES
    45   22   86 1    
    46   23   24 2    
    47   23   25 1    
    48   25   26 1    
    49   25   27 1    
    50   25   87 1    
    51   26   88 1    
    52   26   89 1    
    53   26   90 1    
    54   27   28 am   BACKBONE|DICT|INTERRES
    55   27   91 1    
    56   28   29 2    
    57   28   30 1    
    58   30   31 1    
    59   30   32 1    
    60   30   92 1    
    61   31   93 1    
    62   31   94 1    
    63   31   95 1    
    64   32   33 am   BACKBONE|DICT|INTERRES
    65   32   96 1    
    66   33   34 2    
    67   33   35 1    
    68   35   36 1    
    69   35   37 1    
    70   35   97 1    
    71   36   98 1    
    72   36   99 1    
    73   36  100 1    
    74   37   38 am   BACKBONE|DICT|INTERRES
    75   37  101 1    
    76   38   39 2    
    77   38   40 1    
    78   40   41 1    
    79   40   42 1    
    80   40  102 1    
    81   41  103 1    
    82   41  104 1    
    83   41  105 1    
    84   42   43 am   BACKBONE|DICT|INTERRES
    85   42  106 1    
    86   43   44 2    
    87   43   45 1    
    88   45   46 1    
    89   45   49 1    
    90   45  107 1    
    91   46   47 1    
    92   46  108 1    
    93   46  109 1    
    94   47   48 1    
    95   48  110 1    
    96   48  111 1    
    97   49   50 am   BACKBONE|DICT|INTERRES
    98   49  112 1    
    99   50   51 2    
   100   50   52 1    
   101   52   53 1    
   102   52   54 1    
   103   52  113 1    
   104   53  114 1    
   105   53  115 1    
   106   53  116 1    
   107   54   55 am   BACKBONE|DICT|INTERRES
   108   54  117 1    
   109   55   56 2    
   110   55   57 1    
   111   57   58 1    
   112   57   59 1    
   113   57  118 1    
   114   58  119 1    
   115   58  120 1    
   116   58  121 1    
   117   59   60 am   BACKBONE|DICT|INTERRES
   118   59  122 1    
   119   60   61 2    
   120   60   62 1    
   121   62   63 1    
   122   62   64 1    
   123   62  123 1    
   124   63  124 1    
   125   63  125 1    
   126   63  126 1    
   127   64   65 am   BACKBONE|DICT|INTERRES
   128   64  127 1    
   129   65   66 2    
@<TRIPOS>SUBSTRUCTURE
     1 UNK         1 GROUP             0       ****    0 ROOT    
