@<TRIPOS>MOLECULE
3R135
127   129    1
SMALL
USER_CHARGES


@<TRIPOS>ATOM
      1 CA        -83.6189   26.1166  -76.4457 C.3       0 UNK        -0.1998 
      2 C         -82.5000   26.9889  -75.8987 C.2       0 UNK         0.4909 
      3 O         -81.7241   27.5463  -76.6751 O.2       0 UNK        -0.5240 
      4 N         -82.4059   27.1127  -74.5679 N.am      1 UNK        -0.4739 
      5 CA        -81.4014   27.9306  -73.8797 C.3       1 UNK         0.0864 
      6 C6        -81.7075   28.0607  -72.3689 C.3       11 UNK        -0.0881 
      7 S7        -81.0312   29.6063  -71.6761 S.3       11 UNK        -0.2682 
      8 C8        -80.3477   29.0391  -70.0892 C.3       11 UNK         0.0289 
      9 C9        -78.9574   28.4346  -70.2314 C.ar      11 UNK        -0.0687 
     10 C10       -78.7730   27.0494  -70.1748 C.ar      11 UNK        -0.0823 
     11 C11       -77.4865   26.4990  -70.2081 C.ar      11 UNK        -0.0830 
     12 C12       -76.3804   27.3523  -70.3065 C.ar      11 UNK        -0.1021 
     13 C13       -76.5530   28.7369  -70.3795 C.ar      11 UNK        -0.0753 
     14 C14       -77.8439   29.2716  -70.3479 C.ar      11 UNK        -0.0933 
     15 C15       -75.3451   29.6593  -70.4273 C.3       11 UNK         0.0166 
     16 S16       -74.7651   29.9456  -72.1267 S.3       11 UNK        -0.2615 
     17 C17       -73.5124   31.2294  -71.7968 C.3       11 UNK        -0.0865 
     18 CA        -73.0325   31.9686  -73.0728 C.3       10 UNK         0.0862 
     19 C         -72.1867   33.2176  -72.6793 C.2       10 UNK         0.5551 
     20 N         -70.8785   33.2363  -72.9057 N.am      10 UNK        -0.7319 
     21 O         -72.7327   34.1865  -72.1574 O.2       10 UNK        -0.5018 
     22 N         -72.3790   31.0485  -74.0207 N.am      10 UNK        -0.4509 
     23 C         -72.0662   31.3471  -75.2898 C.2       10 UNK         0.4899 
     24 O         -72.3411   32.4173  -75.8330 O.2       10 UNK        -0.4839 
     25 CA        -71.2994   30.2792  -76.0894 C.3       9 UNK         0.0222 
     26 CB        -69.7834   30.5040  -75.9645 C.3       9 UNK        -0.1966 
     27 N         -71.6234   28.9086  -75.6834 N.am      9 UNK        -0.4218 
     28 C         -72.7660   28.2855  -75.9977 C.2       9 UNK         0.5020 
     29 O         -73.6667   28.7988  -76.6666 O.2       9 UNK        -0.5274 
     30 CA        -72.9315   26.8577  -75.4515 C.3       8 UNK         0.0270 
     31 CB        -73.5811   26.8838  -74.0577 C.3       8 UNK        -0.1976 
     32 N         -73.7466   26.0384  -76.3478 N.am      8 UNK        -0.4313 
     33 C         -73.3474   25.5903  -77.5440 C.2       8 UNK         0.5041 
     34 O         -72.2061   25.7441  -77.9874 O.2       8 UNK        -0.5577 
     35 CA        -74.4078   24.8329  -78.3673 C.3       7 UNK         0.0284 
     36 CB        -73.9197   24.4481  -79.7803 C.3       7 UNK        -0.1958 
     37 N         -74.9341   23.6579  -77.6607 N.am      7 UNK        -0.4454 
     38 C         -74.2331   22.6081  -77.2028 C.2       7 UNK         0.5089 
     39 O         -73.0203   22.4604  -77.3661 O.2       7 UNK        -0.5125 
     40 CA        -75.0351   21.5366  -76.4353 C.3       6 UNK         0.0408 
     41 CB        -74.1346   20.5190  -75.7035 C.3       6 UNK        -0.1791 
     42 N         -76.0229   22.1048  -75.5108 N.am      6 UNK        -0.4762 
     43 C         -75.8094   22.9501  -74.4897 C.2       6 UNK         0.5007 
     44 O         -74.6873   23.3489  -74.1765 O.2       6 UNK        -0.5032 
     45 CA        -77.0549   23.4312  -73.6952 C.3       5 UNK         0.0783 
     46 C46       -76.7720   24.6901  -72.8332 C.3       11 UNK        -0.0857 
     47 S47       -76.0527   24.2927  -71.2069 S.3       11 UNK        -0.2512 
     48 C48       -77.3079   24.9868  -70.0789 C.3       11 UNK         0.0225 
     49 N         -78.2256   23.6592  -74.5501 N.am      5 UNK        -0.4615 
     50 C         -78.9923   22.7326  -75.1364 C.2       4 UNK         0.5053 
     51 O         -78.8361   21.5221  -74.9796 O.2       4 UNK        -0.5105 
     52 CA        -80.0654   23.2349  -76.1160 C.3       4 UNK         0.0263 
     53 CB        -81.4246   23.3609  -75.4113 C.3       4 UNK        -0.1981 
     54 N         -79.7069   24.5095  -76.7486 N.am      4 UNK        -0.4224 
     55 C         -78.6958   24.6722  -77.6166 C.2       3 UNK         0.4895 
     56 O         -77.9740   23.7581  -78.0181 O.2       3 UNK        -0.5091 
     57 CA        -78.4049   26.1132  -78.0640 C.3       3 UNK         0.0250 
     58 CB        -79.4159   26.5784  -79.1237 C.3       3 UNK        -0.1996 
     59 N         -78.3846   27.0469  -76.9347 N.am      3 UNK        -0.4254 
     60 C         -77.4635   27.0264  -75.9575 C.2       2 UNK         0.5004 
     61 O         -76.5114   26.2467  -75.9371 O.2       2 UNK        -0.5226 
     62 CA        -77.6529   28.0066  -74.7843 C.3       2 UNK         0.0269 
     63 CB        -76.9121   29.3234  -75.0584 C.3       2 UNK        -0.1926 
     64 N         -79.0542   28.3056  -74.4785 N.am      2 UNK        -0.4687 
     65 C         -79.9762   27.3993  -74.1293 C.2       1 UNK         0.5165 
     66 O         -79.7482   26.1919  -74.0260 O.2       1 UNK        -0.5079 
     67 H67       -84.0464   25.4744  -75.6760 H         1 UNK         0.0900 
     68 H68       -83.2452   25.4825  -77.2491 H         1 UNK         0.0900 
     69 H69       -84.4141   26.7416  -76.8510 H         1 UNK         0.0900 
     70 H70       -83.0489   26.6091  -73.9740 H         1 UNK         0.2959 
     71 H71       -81.4766   28.9236  -74.3297 H         1 UNK         0.1079 
     72 H72       -82.7856   28.0948  -72.2035 H         1 UNK         0.0837 
     73 H73       -81.3496   27.1916  -71.8134 H         1 UNK         0.0837 
     74 H74       -80.2948   29.8934  -69.4126 H         1 UNK         0.0685 
     75 H75       -81.0358   28.3324  -69.6226 H         1 UNK         0.0685 
     76 H76       -79.6321   26.4005  -70.0731 H         1 UNK         0.1434 
     77 H77       -75.3804   26.9406  -70.3134 H         1 UNK         0.1329 
     78 H78       -77.9824   30.3436  -70.3844 H         1 UNK         0.1335 
     79 H79       -74.5301   29.2367  -69.8374 H         1 UNK         0.0680 
     80 H80       -75.5957   30.6142  -69.9626 H         1 UNK         0.0680 
     81 H81       -72.6676   30.7727  -71.2776 H         1 UNK         0.1032 
     82 H82       -73.9481   31.9435  -71.0946 H         1 UNK         0.1032 
     83 H83       -73.9188   32.3590  -73.5770 H         1 UNK         0.0461 
     84 H84       -70.4225   32.4463  -73.3317 H         1 UNK         0.3453 
     85 H85       -70.3439   34.0510  -72.6482 H         1 UNK         0.3453 
     86 H86       -72.1312   30.1404  -73.6596 H         1 UNK         0.2984 
     87 H87       -71.5702   30.3982  -77.1409 H         1 UNK         0.0554 
     88 H88       -69.2264   29.8118  -76.5964 H         1 UNK         0.0847 
     89 H89       -69.4353   30.3768  -74.9387 H         1 UNK         0.0847 
     90 H90       -69.5117   31.5132  -76.2777 H         1 UNK         0.0847 
     91 H91       -70.9306   28.4158  -75.1375 H         1 UNK         0.3141 
     92 H92       -71.9467   26.3933  -75.3687 H         1 UNK         0.0743 
     93 H93       -74.5780   27.3243  -74.0846 H         1 UNK         0.0784 
     94 H94       -73.6708   25.8792  -73.6440 H         1 UNK         0.0784 
     95 H95       -72.9870   27.4693  -73.3552 H         1 UNK         0.0784 
     96 H96       -74.7320   25.9444  -76.1027 H         1 UNK         0.3213 
     97 H97       -75.2417   25.5227  -78.4893 H         1 UNK         0.0855 
     98 H98       -73.6079   25.3323  -80.3375 H         1 UNK         0.0814 
     99 H99       -74.7104   23.9653  -80.3545 H         1 UNK         0.0814 
    100 H100      -73.0668   23.7697  -79.7464 H         1 UNK         0.0814 
    101 H101      -75.9338   23.6681  -77.4844 H         1 UNK         0.3105 
    102 H102      -75.6047   20.9896  -77.1880 H         1 UNK         0.0547 
    103 H103      -73.4801   20.0001  -76.4049 H         1 UNK         0.0837 
    104 H104      -73.4976   21.0028  -74.9624 H         1 UNK         0.0837 
    105 H105      -74.7263   19.7594  -75.1931 H         1 UNK         0.0837 
    106 H106      -76.9834   21.8131  -75.6609 H         1 UNK         0.3020 
    107 H107      -77.3174   22.6107  -73.0236 H         1 UNK         0.1245 
    108 H108      -77.6986   25.2380  -72.6605 H         1 UNK         0.0781 
    109 H109      -76.1195   25.3956  -73.3490 H         1 UNK         0.0781 
    110 H110      -77.0188   24.7584  -69.0524 H         1 UNK         0.0836 
    111 H111      -78.2528   24.4700  -70.2549 H         1 UNK         0.0836 
    112 H112      -78.4700   24.6299  -74.7065 H         1 UNK         0.3022 
    113 H113      -80.1600   22.4852  -76.9045 H         1 UNK         0.0747 
    114 H114      -82.2193   23.5741  -76.1245 H         1 UNK         0.0793 
    115 H115      -81.6906   22.4301  -74.9082 H         1 UNK         0.0793 
    116 H116      -81.4206   24.1477  -74.6564 H         1 UNK         0.0793 
    117 H117      -80.2062   25.3311  -76.4372 H         1 UNK         0.3047 
    118 H118      -77.4172   26.1282  -78.5251 H         1 UNK         0.0822 
    119 H119      -79.1926   27.5877  -79.4697 H         1 UNK         0.0807 
    120 H120      -80.4385   26.5719  -78.7468 H         1 UNK         0.0807 
    121 H121      -79.3895   25.9248  -79.9967 H         1 UNK         0.0807 
    122 H122      -79.1571   27.6955  -76.8604 H         1 UNK         0.2946 
    123 H123      -77.2163   27.5470  -73.8949 H         1 UNK         0.1144 
    124 H124      -77.0047   30.0134  -74.2196 H         1 UNK         0.0793 
    125 H125      -77.2890   29.8243  -75.9507 H         1 UNK         0.0793 
    126 H126      -75.8473   29.1463  -75.2089 H         1 UNK         0.0793 
    127 H127      -79.3252   29.2772  -74.5286 H         1 UNK         0.2896 
@<TRIPOS>BOND
     1    1    2 1    
     2    1   67 1    
     3    1   68 1    
     4    1   69 1    
     5    2    3 2    
     6    2    4 am   BACKBONE|DICT|INTERRES
     7    4    5 1    
     8    4   70 1    
     9    5    6 1    
    10    5   65 1    
    11    5   71 1    
    12    6    7 1    
    13    6   72 1    
    14    6   73 1    
    15    7    8 1    
    16    8    9 1    
    17    8   74 1    
    18    8   75 1    
    19    9   10 ar   
    20    9   14 ar   
    21   10   11 ar   
    22   10   76 1    
    23   11   12 ar   
    24   11   48 1    
    25   12   13 ar   
    26   12   77 1    
    27   13   14 ar   
    28   13   15 1    
    29   14   78 1    
    30   15   16 1    
    31   15   79 1    
    32   15   80 1    
    33   16   17 1    
    34   17   18 1    
    35   17   81 1    
    36   17   82 1    
    37   18   19 1    
    38   18   22 1    
    39   18   83 1    
    40   19   20 am   BACKBONE|DICT|INTERRES
    41   19   21 2    
    42   20   84 1    
    43   20   85 1    
    44   22   23 am   BACKBONE|DICT|INTERRES
    45   22   86 1    
    46   23   24 2    
    47   23   25 1    
    48   25   26 1    
    49   25   27 1    
    50   25   87 1    
    51   26   88 1    
    52   26   89 1    
    53   26   90 1    
    54   27   28 am   BACKBONE|DICT|INTERRES
    55   27   91 1    
    56   28   29 2    
    57   28   30 1    
    58   30   31 1    
    59   30   32 1    
    60   30   92 1    
    61   31   93 1    
    62   31   94 1    
    63   31   95 1    
    64   32   33 am   BACKBONE|DICT|INTERRES
    65   32   96 1    
    66   33   34 2    
    67   33   35 1    
    68   35   36 1    
    69   35   37 1    
    70   35   97 1    
    71   36   98 1    
    72   36   99 1    
    73   36  100 1    
    74   37   38 am   BACKBONE|DICT|INTERRES
    75   37  101 1    
    76   38   39 2    
    77   38   40 1    
    78   40   41 1    
    79   40   42 1    
    80   40  102 1    
    81   41  103 1    
    82   41  104 1    
    83   41  105 1    
    84   42   43 am   BACKBONE|DICT|INTERRES
    85   42  106 1    
    86   43   44 2    
    87   43   45 1    
    88   45   46 1    
    89   45   49 1    
    90   45  107 1    
    91   46   47 1    
    92   46  108 1    
    93   46  109 1    
    94   47   48 1    
    95   48  110 1    
    96   48  111 1    
    97   49   50 am   BACKBONE|DICT|INTERRES
    98   49  112 1    
    99   50   51 2    
   100   50   52 1    
   101   52   53 1    
   102   52   54 1    
   103   52  113 1    
   104   53  114 1    
   105   53  115 1    
   106   53  116 1    
   107   54   55 am   BACKBONE|DICT|INTERRES
   108   54  117 1    
   109   55   56 2    
   110   55   57 1    
   111   57   58 1    
   112   57   59 1    
   113   57  118 1    
   114   58  119 1    
   115   58  120 1    
   116   58  121 1    
   117   59   60 am   BACKBONE|DICT|INTERRES
   118   59  122 1    
   119   60   61 2    
   120   60   62 1    
   121   62   63 1    
   122   62   64 1    
   123   62  123 1    
   124   63  124 1    
   125   63  125 1    
   126   63  126 1    
   127   64   65 am   BACKBONE|DICT|INTERRES
   128   64  127 1    
   129   65   66 2    
@<TRIPOS>SUBSTRUCTURE
     1 UNK         1 GROUP             0       ****    0 ROOT    
