@<TRIPOS>MOLECULE
3R135
127   129    1
SMALL
USER_CHARGES


@<TRIPOS>ATOM
      1 CA        -76.6720   31.3119  -76.3219 C.3       0 UNK        -0.1998 
      2 C         -77.3966   30.4288  -75.3212 C.2       0 UNK         0.4909 
      3 O         -77.9093   30.9378  -74.3257 O.2       0 UNK        -0.5240 
      4 N         -77.4383   29.1210  -75.5949 N.am      1 UNK        -0.4739 
      5 CA        -78.0924   28.0718  -74.8077 C.3       1 UNK         0.0864 
      6 C6        -79.6009   28.3374  -74.5282 C.3       11 UNK        -0.0881 
      7 S7        -80.4086   27.0452  -73.5214 S.3       11 UNK        -0.2682 
      8 C8        -80.5040   27.8503  -71.8912 C.3       11 UNK         0.0289 
      9 C9        -79.1476   27.9636  -71.2056 C.ar      11 UNK        -0.0687 
     10 C10       -78.4532   26.8094  -70.8352 C.ar      11 UNK        -0.0823 
     11 C11       -77.2452   26.8951  -70.1390 C.ar      11 UNK        -0.0830 
     12 C12       -76.7369   28.1523  -69.7978 C.ar      11 UNK        -0.1021 
     13 C13       -77.4172   29.3193  -70.1655 C.ar      11 UNK        -0.0753 
     14 C14       -78.6162   29.2161  -70.8808 C.ar      11 UNK        -0.0933 
     15 C15       -76.9114   30.6902  -69.7237 C.3       11 UNK         0.0166 
     16 S16       -75.1614   31.0051  -70.1271 S.3       11 UNK        -0.2615 
     17 C17       -75.2251   31.1751  -71.9417 C.3       11 UNK        -0.0865 
     18 CA        -74.0387   30.4650  -72.6442 C.3       10 UNK         0.0862 
     19 C         -74.2360   28.9226  -72.6598 C.2       10 UNK         0.5551 
     20 N         -73.5996   28.2105  -71.7409 N.am      10 UNK        -0.7319 
     21 O         -74.9801   28.3835  -73.4735 O.2       10 UNK        -0.5018 
     22 N         -73.8102   31.0449  -73.9770 N.am      10 UNK        -0.4509 
     23 C         -72.8584   30.6671  -74.8387 C.2       10 UNK         0.4899 
     24 O         -71.9984   29.8154  -74.6056 O.2       10 UNK        -0.4839 
     25 CA        -72.8566   31.3633  -76.2018 C.3       9 UNK         0.0222 
     26 CB        -71.6396   32.2903  -76.3620 C.3       9 UNK        -0.1966 
     27 N         -72.8269   30.3160  -77.2140 N.am      9 UNK        -0.4218 
     28 C         -73.4722   30.3363  -78.3853 C.2       9 UNK         0.5020 
     29 O         -74.0877   31.3146  -78.8105 O.2       9 UNK        -0.5274 
     30 CA        -73.4393   29.0490  -79.2305 C.3       8 UNK         0.0270 
     31 CB        -72.4838   29.2145  -80.4242 C.3       8 UNK        -0.1976 
     32 N         -73.0556   27.8535  -78.4713 N.am      8 UNK        -0.4313 
     33 C         -73.8372   27.2227  -77.5851 C.2       8 UNK         0.5041 
     34 O         -74.9847   27.5748  -77.2979 O.2       8 UNK        -0.5577 
     35 CA        -73.2056   26.0167  -76.8812 C.3       7 UNK         0.0284 
     36 CB        -72.5197   26.4508  -75.5755 C.3       7 UNK        -0.1958 
     37 N         -74.2396   25.0348  -76.5690 N.am      7 UNK        -0.4454 
     38 C         -74.1799   23.7301  -76.8659 C.2       7 UNK         0.5089 
     39 O         -73.2295   23.2022  -77.4464 O.2       7 UNK        -0.5125 
     40 CA        -75.3891   22.8755  -76.4363 C.3       6 UNK         0.0408 
     41 CB        -75.1103   21.3578  -76.4780 C.3       6 UNK        -0.1791 
     42 N         -75.9244   23.2839  -75.1323 N.am      6 UNK        -0.4762 
     43 C         -75.3085   23.2162  -73.9403 C.2       6 UNK         0.5007 
     44 O         -74.1862   22.7393  -73.7692 O.2       6 UNK        -0.5032 
     45 CA        -76.0752   23.7863  -72.7291 C.3       5 UNK         0.0783 
     46 C46       -75.5881   25.2207  -72.3781 C.3       11 UNK        -0.0857 
     47 S47       -74.9813   25.3453  -70.6639 S.3       11 UNK        -0.2512 
     48 C48       -76.5169   25.6234  -69.7244 C.3       11 UNK         0.0225 
     49 N         -77.5270   23.7479  -72.9519 N.am      5 UNK        -0.4615 
     50 C         -78.2839   22.6608  -72.7585 C.2       4 UNK         0.5053 
     51 O         -77.8456   21.6062  -72.2987 O.2       4 UNK        -0.5105 
     52 CA        -79.7684   22.7373  -73.1391 C.3       4 UNK         0.0263 
     53 CB        -80.6083   23.3500  -72.0044 C.3       4 UNK        -0.1981 
     54 N         -80.0247   23.4516  -74.3973 N.am      4 UNK        -0.4224 
     55 C         -80.9744   23.0810  -75.2713 C.2       3 UNK         0.4895 
     56 O         -81.6619   22.0670  -75.1395 O.2       3 UNK        -0.5091 
     57 CA        -81.2509   23.9856  -76.4865 C.3       3 UNK         0.0250 
     58 CB        -82.5123   24.8309  -76.2419 C.3       3 UNK        -0.1996 
     59 N         -80.1485   24.8781  -76.8406 N.am      3 UNK        -0.4254 
     60 C         -79.0345   24.5079  -77.4865 C.2       2 UNK         0.5004 
     61 O         -78.8031   23.3543  -77.8463 O.2       2 UNK        -0.5226 
     62 CA        -77.9972   25.6111  -77.7766 C.3       2 UNK         0.0269 
     63 CB        -78.0962   26.0787  -79.2367 C.3       2 UNK        -0.1926 
     64 N         -78.1003   26.7764  -76.8923 N.am      2 UNK        -0.4687 
     65 C         -77.9035   26.7473  -75.5652 C.2       1 UNK         0.5165 
     66 O         -77.6216   25.7173  -74.9525 O.2       1 UNK        -0.5079 
     67 H67       -77.3898   31.7860  -76.9906 H         1 UNK         0.0900 
     68 H68       -76.1196   32.0976  -75.8093 H         1 UNK         0.0900 
     69 H69       -75.9732   30.7349  -76.9250 H         1 UNK         0.0900 
     70 H70       -76.8893   28.7664  -76.3708 H         1 UNK         0.2959 
     71 H71       -77.5650   27.9925  -73.8550 H         1 UNK         0.1079 
     72 H72       -80.1521   28.4346  -75.4651 H         1 UNK         0.0837 
     73 H73       -79.7366   29.2880  -74.0145 H         1 UNK         0.0837 
     74 H74       -81.1669   27.2624  -71.2550 H         1 UNK         0.0685 
     75 H75       -80.9758   28.8285  -71.9967 H         1 UNK         0.0685 
     76 H76       -78.8621   25.8403  -71.0797 H         1 UNK         0.1434 
     77 H77       -75.8130   28.2217  -69.2400 H         1 UNK         0.1329 
     78 H78       -79.1566   30.1123  -71.1537 H         1 UNK         0.1335 
     79 H79       -77.0342   30.7672  -68.6427 H         1 UNK         0.0680 
     80 H80       -77.5176   31.4876  -70.1567 H         1 UNK         0.0680 
     81 H81       -76.1789   30.8058  -72.3234 H         1 UNK         0.1032 
     82 H82       -75.2116   32.2447  -72.1568 H         1 UNK         0.1032 
     83 H83       -73.1304   30.6842  -72.0787 H         1 UNK         0.0461 
     84 H84       -73.0087   28.6561  -71.0578 H         1 UNK         0.3453 
     85 H85       -73.7624   27.2168  -71.6959 H         1 UNK         0.3453 
     86 H86       -74.4674   31.7530  -74.2645 H         1 UNK         0.2984 
     87 H87       -73.7664   31.9569  -76.3052 H         1 UNK         0.0554 
     88 H88       -71.6414   33.0715  -75.6008 H         1 UNK         0.0847 
     89 H89       -71.6438   32.7838  -77.3340 H         1 UNK         0.0847 
     90 H90       -70.7000   31.7441  -76.2684 H         1 UNK         0.0847 
     91 H91       -72.3710   29.4613  -76.9238 H         1 UNK         0.3141 
     92 H92       -74.4481   28.8936  -79.6196 H         1 UNK         0.0743 
     93 H93       -72.7639   30.0765  -81.0316 H         1 UNK         0.0784 
     94 H94       -71.4533   29.3665  -80.1001 H         1 UNK         0.0784 
     95 H95       -72.5073   28.3413  -81.0765 H         1 UNK         0.0784 
     96 H96       -72.1268   27.4937  -78.6427 H         1 UNK         0.3213 
     97 H97       -72.4564   25.5820  -77.5466 H         1 UNK         0.0855 
     98 H98       -73.2229   26.9256  -74.8908 H         1 UNK         0.0814 
     99 H99       -71.7192   27.1662  -75.7670 H         1 UNK         0.0814 
    100 H100      -72.0766   25.5992  -75.0588 H         1 UNK         0.0814 
    101 H101      -75.0748   25.4115  -76.1405 H         1 UNK         0.3105 
    102 H102      -76.1735   23.0702  -77.1662 H         1 UNK         0.0547 
    103 H103      -75.9838   20.7856  -76.1659 H         1 UNK         0.0837 
    104 H104      -74.2763   21.0771  -75.8345 H         1 UNK         0.0837 
    105 H105      -74.8587   21.0365  -77.4894 H         1 UNK         0.0837 
    106 H106      -76.8148   23.7660  -75.1521 H         1 UNK         0.3020 
    107 H107      -75.8404   23.1169  -71.8979 H         1 UNK         0.1245 
    108 H108      -76.3642   25.9673  -72.5481 H         1 UNK         0.0781 
    109 H109      -74.7651   25.5439  -73.0195 H         1 UNK         0.0781 
    110 H110      -76.2730   25.6814  -68.6628 H         1 UNK         0.0836 
    111 H111      -77.1626   24.7512  -69.8392 H         1 UNK         0.0836 
    112 H112      -77.9172   24.5806  -73.3775 H         1 UNK         0.3022 
    113 H113      -80.0835   21.6972  -73.2499 H         1 UNK         0.0747 
    114 H114      -81.6734   23.1998  -72.1811 H         1 UNK         0.0793 
    115 H115      -80.3725   22.8901  -71.0437 H         1 UNK         0.0793 
    116 H116      -80.4395   24.4213  -71.9088 H         1 UNK         0.0793 
    117 H117      -79.4916   24.2901  -74.5831 H         1 UNK         0.3047 
    118 H118      -81.4441   23.3297  -77.3385 H         1 UNK         0.0822 
    119 H119      -82.7733   25.4201  -77.1212 H         1 UNK         0.0807 
    120 H120      -82.3838   25.5161  -75.4030 H         1 UNK         0.0807 
    121 H121      -83.3701   24.1964  -76.0141 H         1 UNK         0.0807 
    122 H122      -80.2498   25.8492  -76.5848 H         1 UNK         0.2946 
    123 H123      -77.0079   25.1773  -77.6317 H         1 UNK         0.1144 
    124 H124      -77.3062   26.7908  -79.4773 H         1 UNK         0.0793 
    125 H125      -79.0554   26.5542  -79.4454 H         1 UNK         0.0793 
    126 H126      -77.9919   25.2381  -79.9244 H         1 UNK         0.0793 
    127 H127      -78.3557   27.6516  -77.3266 H         1 UNK         0.2896 
@<TRIPOS>BOND
     1    1    2 1    
     2    1   67 1    
     3    1   68 1    
     4    1   69 1    
     5    2    3 2    
     6    2    4 am   BACKBONE|DICT|INTERRES
     7    4    5 1    
     8    4   70 1    
     9    5    6 1    
    10    5   65 1    
    11    5   71 1    
    12    6    7 1    
    13    6   72 1    
    14    6   73 1    
    15    7    8 1    
    16    8    9 1    
    17    8   74 1    
    18    8   75 1    
    19    9   10 ar   
    20    9   14 ar   
    21   10   11 ar   
    22   10   76 1    
    23   11   12 ar   
    24   11   48 1    
    25   12   13 ar   
    26   12   77 1    
    27   13   14 ar   
    28   13   15 1    
    29   14   78 1    
    30   15   16 1    
    31   15   79 1    
    32   15   80 1    
    33   16   17 1    
    34   17   18 1    
    35   17   81 1    
    36   17   82 1    
    37   18   19 1    
    38   18   22 1    
    39   18   83 1    
    40   19   20 am   BACKBONE|DICT|INTERRES
    41   19   21 2    
    42   20   84 1    
    43   20   85 1    
    44   22   23 am   BACKBONE|DICT|INTERRES
    45   22   86 1    
    46   23   24 2    
    47   23   25 1    
    48   25   26 1    
    49   25   27 1    
    50   25   87 1    
    51   26   88 1    
    52   26   89 1    
    53   26   90 1    
    54   27   28 am   BACKBONE|DICT|INTERRES
    55   27   91 1    
    56   28   29 2    
    57   28   30 1    
    58   30   31 1    
    59   30   32 1    
    60   30   92 1    
    61   31   93 1    
    62   31   94 1    
    63   31   95 1    
    64   32   33 am   BACKBONE|DICT|INTERRES
    65   32   96 1    
    66   33   34 2    
    67   33   35 1    
    68   35   36 1    
    69   35   37 1    
    70   35   97 1    
    71   36   98 1    
    72   36   99 1    
    73   36  100 1    
    74   37   38 am   BACKBONE|DICT|INTERRES
    75   37  101 1    
    76   38   39 2    
    77   38   40 1    
    78   40   41 1    
    79   40   42 1    
    80   40  102 1    
    81   41  103 1    
    82   41  104 1    
    83   41  105 1    
    84   42   43 am   BACKBONE|DICT|INTERRES
    85   42  106 1    
    86   43   44 2    
    87   43   45 1    
    88   45   46 1    
    89   45   49 1    
    90   45  107 1    
    91   46   47 1    
    92   46  108 1    
    93   46  109 1    
    94   47   48 1    
    95   48  110 1    
    96   48  111 1    
    97   49   50 am   BACKBONE|DICT|INTERRES
    98   49  112 1    
    99   50   51 2    
   100   50   52 1    
   101   52   53 1    
   102   52   54 1    
   103   52  113 1    
   104   53  114 1    
   105   53  115 1    
   106   53  116 1    
   107   54   55 am   BACKBONE|DICT|INTERRES
   108   54  117 1    
   109   55   56 2    
   110   55   57 1    
   111   57   58 1    
   112   57   59 1    
   113   57  118 1    
   114   58  119 1    
   115   58  120 1    
   116   58  121 1    
   117   59   60 am   BACKBONE|DICT|INTERRES
   118   59  122 1    
   119   60   61 2    
   120   60   62 1    
   121   62   63 1    
   122   62   64 1    
   123   62  123 1    
   124   63  124 1    
   125   63  125 1    
   126   63  126 1    
   127   64   65 am   BACKBONE|DICT|INTERRES
   128   64  127 1    
   129   65   66 2    
@<TRIPOS>SUBSTRUCTURE
     1 UNK         1 GROUP             0       ****    0 ROOT    
