@<TRIPOS>MOLECULE
3R135
127   129    1
SMALL
USER_CHARGES


@<TRIPOS>ATOM
      1 CA        -83.8249   27.5411  -70.7906 C.3       0 UNK        -0.1998 
      2 C         -83.6506   27.6017  -72.3007 C.2       0 UNK         0.4909 
      3 O         -84.6109   27.3766  -73.0378 O.2       0 UNK        -0.5240 
      4 N         -82.4319   27.9078  -72.7646 N.am      1 UNK        -0.4739 
      5 CA        -82.0744   27.9958  -74.1866 C.3       1 UNK         0.0864 
      6 C6        -80.7198   28.7167  -74.3997 C.3       11 UNK        -0.0881 
      7 S7        -80.7866   30.4926  -73.9802 S.3       11 UNK        -0.2682 
      8 C8        -80.2447   30.5440  -72.2397 C.3       11 UNK         0.0289 
      9 C9        -78.8404   29.9915  -72.0388 C.ar      11 UNK        -0.0687 
     10 C10       -78.6509   28.7710  -71.3837 C.ar      11 UNK        -0.0823 
     11 C11       -77.3645   28.2649  -71.1787 C.ar      11 UNK        -0.0830 
     12 C12       -76.2615   28.9917  -71.6410 C.ar      11 UNK        -0.1021 
     13 C13       -76.4351   30.2216  -72.2851 C.ar      11 UNK        -0.0753 
     14 C14       -77.7290   30.7141  -72.4823 C.ar      11 UNK        -0.0933 
     15 C15       -75.2323   31.0133  -72.7830 C.3       11 UNK         0.0166 
     16 S16       -74.0135   31.3301  -71.4626 S.3       11 UNK        -0.2615 
     17 C17       -72.8341   32.4420  -72.3074 C.3       11 UNK        -0.0865 
     18 CA        -71.5071   31.7963  -72.8089 C.3       10 UNK         0.0862 
     19 C         -70.5648   31.2739  -71.6793 C.2       10 UNK         0.5551 
     20 N         -69.7543   30.2500  -71.9137 N.am      10 UNK        -0.7319 
     21 O         -70.5233   31.8422  -70.5904 O.2       10 UNK        -0.5018 
     22 N         -71.6983   30.9480  -74.0014 N.am      10 UNK        -0.4509 
     23 C         -72.0829   29.6659  -74.0673 C.2       10 UNK         0.4899 
     24 O         -72.2549   28.9378  -73.0887 O.2       10 UNK        -0.4839 
     25 CA        -72.3870   29.1331  -75.4809 C.3       9 UNK         0.0222 
     26 CB        -71.5132   29.7562  -76.5946 C.3       9 UNK        -0.1966 
     27 N         -72.3663   27.6716  -75.5491 N.am      9 UNK        -0.4218 
     28 C         -71.3118   26.8508  -75.4467 C.2       9 UNK         0.5020 
     29 O         -70.1527   27.2241  -75.2566 O.2       9 UNK        -0.5274 
     30 CA        -71.5984   25.3463  -75.6191 C.3       8 UNK         0.0270 
     31 CB        -71.9212   24.6981  -74.2632 C.3       8 UNK        -0.1976 
     32 N         -72.6831   25.0730  -76.5711 N.am      8 UNK        -0.4313 
     33 C         -72.6198   25.3298  -77.8871 C.2       8 UNK         0.5041 
     34 O         -71.6060   25.7360  -78.4570 O.2       8 UNK        -0.5577 
     35 CA        -73.9021   25.1152  -78.7100 C.3       7 UNK         0.0284 
     36 CB        -74.0600   23.6363  -79.0981 C.3       7 UNK        -0.1958 
     37 N         -75.1075   25.5837  -78.0206 N.am      7 UNK        -0.4454 
     38 C         -75.3870   26.8705  -77.7615 C.2       7 UNK         0.5089 
     39 O         -74.6933   27.8131  -78.1426 O.2       7 UNK        -0.5125 
     40 CA        -76.6302   27.1570  -76.8973 C.3       6 UNK         0.0408 
     41 CB        -77.9054   27.1728  -77.7536 C.3       6 UNK        -0.1791 
     42 N         -76.7876   26.2027  -75.7977 N.am      6 UNK        -0.4762 
     43 C         -75.9061   26.0384  -74.8004 C.2       6 UNK         0.5007 
     44 O         -74.8952   26.7258  -74.6689 O.2       6 UNK        -0.5032 
     45 CA        -76.1502   24.8586  -73.8415 C.3       5 UNK         0.0783 
     46 C46       -77.0642   25.2364  -72.6481 C.3       11 UNK        -0.0857 
     47 S47       -76.0676   25.7787  -71.2215 S.3       11 UNK        -0.2512 
     48 C48       -77.1780   26.9657  -70.4026 C.3       11 UNK         0.0225 
     49 N         -76.6330   23.6804  -74.5646 N.am      5 UNK        -0.4615 
     50 C         -75.8571   22.9165  -75.3451 C.2       4 UNK         0.5053 
     51 O         -74.6576   23.1247  -75.5262 O.2       4 UNK        -0.5105 
     52 CA        -76.5390   21.7439  -76.0688 C.3       4 UNK         0.0263 
     53 CB        -76.6355   20.5204  -75.1440 C.3       4 UNK        -0.1981 
     54 N         -77.8709   22.0868  -76.5727 N.am      4 UNK        -0.4224 
     55 C         -78.0976   22.9826  -77.5434 C.2       3 UNK         0.4895 
     56 O         -77.2072   23.5878  -78.1383 O.2       3 UNK        -0.5091 
     57 CA        -79.5659   23.2893  -77.8791 C.3       3 UNK         0.0250 
     58 CB        -80.1153   22.2607  -78.8804 C.3       3 UNK        -0.1996 
     59 N         -80.4553   23.3670  -76.7135 N.am      3 UNK        -0.4254 
     60 C         -80.2870   24.1883  -75.6675 C.2       2 UNK         0.5004 
     61 O         -79.2872   24.8885  -75.4912 O.2       2 UNK        -0.5226 
     62 CA        -81.4138   24.2174  -74.6221 C.3       2 UNK         0.0269 
     63 CB        -81.0702   23.2930  -73.4430 C.3       2 UNK        -0.1926 
     64 N         -81.6354   25.5750  -74.1176 N.am      2 UNK        -0.4687 
     65 C         -82.0477   26.6111  -74.8650 C.2       1 UNK         0.5165 
     66 O         -82.3975   26.5090  -76.0423 O.2       1 UNK        -0.5079 
     67 H67       -84.5847   28.2544  -70.4722 H         1 UNK         0.0900 
     68 H68       -82.9003   27.7732  -70.2622 H         1 UNK         0.0900 
     69 H69       -84.1461   26.5442  -70.4901 H         1 UNK         0.0900 
     70 H70       -81.6865   28.0935  -72.1119 H         1 UNK         0.2959 
     71 H71       -82.8514   28.5748  -74.6918 H         1 UNK         0.1079 
     72 H72       -79.9181   28.2204  -73.8514 H         1 UNK         0.0837 
     73 H73       -80.4267   28.6639  -75.4505 H         1 UNK         0.0837 
     74 H74       -80.2677   31.5811  -71.9019 H         1 UNK         0.0685 
     75 H75       -80.9664   30.0141  -71.6178 H         1 UNK         0.0685 
     76 H76       -79.5060   28.2205  -71.0172 H         1 UNK         0.1434 
     77 H77       -75.2615   28.6087  -71.4864 H         1 UNK         0.1329 
     78 H78       -77.8773   31.6608  -72.9839 H         1 UNK         0.1335 
     79 H79       -74.7636   30.4591  -73.5951 H         1 UNK         0.0680 
     80 H80       -75.5534   31.9681  -73.2023 H         1 UNK         0.0680 
     81 H81       -72.6026   33.2521  -71.6135 H         1 UNK         0.1032 
     82 H82       -73.3380   32.9304  -73.1425 H         1 UNK         0.1032 
     83 H83       -70.9306   32.6312  -73.2093 H         1 UNK         0.0461 
     84 H84       -69.1351   29.9302  -71.1860 H         1 UNK         0.3453 
     85 H85       -69.8049   29.7572  -72.7914 H         1 UNK         0.3453 
     86 H86       -71.5578   31.4271  -74.8788 H         1 UNK         0.2984 
     87 H87       -73.4221   29.4092  -75.6870 H         1 UNK         0.0554 
     88 H88       -71.7081   29.2797  -77.5559 H         1 UNK         0.0847 
     89 H89       -70.4481   29.6523  -76.3839 H         1 UNK         0.0847 
     90 H90       -71.7237   30.8180  -76.7243 H         1 UNK         0.0847 
     91 H91       -73.2865   27.2384  -75.5503 H         1 UNK         0.3141 
     92 H92       -70.6912   24.8806  -76.0098 H         1 UNK         0.0743 
     93 H93       -71.0971   24.8353  -73.5618 H         1 UNK         0.0784 
     94 H94       -72.8095   25.1363  -73.8081 H         1 UNK         0.0784 
     95 H95       -72.0878   23.6254  -74.3634 H         1 UNK         0.0784 
     96 H96       -73.5291   24.6545  -76.1961 H         1 UNK         0.3213 
     97 H97       -73.8016   25.6946  -79.6304 H         1 UNK         0.0855 
     98 H98       -73.1771   23.2753  -79.6273 H         1 UNK         0.0814 
     99 H99       -74.9152   23.4896  -79.7580 H         1 UNK         0.0814 
    100 H100      -74.1998   22.9999  -78.2242 H         1 UNK         0.0814 
    101 H101      -75.7845   24.8753  -77.7506 H         1 UNK         0.3105 
    102 H102      -76.5072   28.1478  -76.4547 H         1 UNK         0.0547 
    103 H103      -77.8369   27.9261  -78.5394 H         1 UNK         0.0837 
    104 H104      -78.0779   26.2119  -78.2379 H         1 UNK         0.0837 
    105 H105      -78.7848   27.4067  -77.1533 H         1 UNK         0.0837 
    106 H106      -77.6259   25.6234  -75.8036 H         1 UNK         0.3020 
    107 H107      -75.1704   24.5822  -73.4444 H         1 UNK         0.1245 
    108 H108      -77.6409   24.3721  -72.3154 H         1 UNK         0.0781 
    109 H109      -77.7996   25.9966  -72.9212 H         1 UNK         0.0781 
    110 H110      -76.7635   27.2081  -69.4232 H         1 UNK         0.0836 
    111 H111      -78.1357   26.4769  -70.2163 H         1 UNK         0.0836 
    112 H112      -77.6271   23.5054  -74.5355 H         1 UNK         0.3022 
    113 H113      -75.9147   21.4761  -76.9241 H         1 UNK         0.0747 
    114 H114      -77.0410   19.6562  -75.6705 H         1 UNK         0.0793 
    115 H115      -75.6504   20.2366  -74.7704 H         1 UNK         0.0793 
    116 H116      -77.2691   20.7143  -74.2775 H         1 UNK         0.0793 
    117 H117      -78.6624   21.6359  -76.1374 H         1 UNK         0.3047 
    118 H118      -79.5861   24.2694  -78.3597 H         1 UNK         0.0822 
    119 H119      -81.1134   22.5337  -79.2235 H         1 UNK         0.0807 
    120 H120      -80.1701   21.2614  -78.4468 H         1 UNK         0.0807 
    121 H121      -79.4785   22.1979  -79.7643 H         1 UNK         0.0807 
    122 H122      -81.2991   22.8138  -76.7615 H         1 UNK         0.2946 
    123 H123      -82.3411   23.8748  -75.0869 H         1 UNK         0.1144 
    124 H124      -81.8727   23.2761  -72.7053 H         1 UNK         0.0793 
    125 H125      -80.1559   23.6062  -72.9369 H         1 UNK         0.0793 
    126 H126      -80.9213   22.2661  -73.7798 H         1 UNK         0.0793 
    127 H127      -81.3653   25.7548  -73.1626 H         1 UNK         0.2896 
@<TRIPOS>BOND
     1    1    2 1    
     2    1   67 1    
     3    1   68 1    
     4    1   69 1    
     5    2    3 2    
     6    2    4 am   BACKBONE|DICT|INTERRES
     7    4    5 1    
     8    4   70 1    
     9    5    6 1    
    10    5   65 1    
    11    5   71 1    
    12    6    7 1    
    13    6   72 1    
    14    6   73 1    
    15    7    8 1    
    16    8    9 1    
    17    8   74 1    
    18    8   75 1    
    19    9   10 ar   
    20    9   14 ar   
    21   10   11 ar   
    22   10   76 1    
    23   11   12 ar   
    24   11   48 1    
    25   12   13 ar   
    26   12   77 1    
    27   13   14 ar   
    28   13   15 1    
    29   14   78 1    
    30   15   16 1    
    31   15   79 1    
    32   15   80 1    
    33   16   17 1    
    34   17   18 1    
    35   17   81 1    
    36   17   82 1    
    37   18   19 1    
    38   18   22 1    
    39   18   83 1    
    40   19   20 am   BACKBONE|DICT|INTERRES
    41   19   21 2    
    42   20   84 1    
    43   20   85 1    
    44   22   23 am   BACKBONE|DICT|INTERRES
    45   22   86 1    
    46   23   24 2    
    47   23   25 1    
    48   25   26 1    
    49   25   27 1    
    50   25   87 1    
    51   26   88 1    
    52   26   89 1    
    53   26   90 1    
    54   27   28 am   BACKBONE|DICT|INTERRES
    55   27   91 1    
    56   28   29 2    
    57   28   30 1    
    58   30   31 1    
    59   30   32 1    
    60   30   92 1    
    61   31   93 1    
    62   31   94 1    
    63   31   95 1    
    64   32   33 am   BACKBONE|DICT|INTERRES
    65   32   96 1    
    66   33   34 2    
    67   33   35 1    
    68   35   36 1    
    69   35   37 1    
    70   35   97 1    
    71   36   98 1    
    72   36   99 1    
    73   36  100 1    
    74   37   38 am   BACKBONE|DICT|INTERRES
    75   37  101 1    
    76   38   39 2    
    77   38   40 1    
    78   40   41 1    
    79   40   42 1    
    80   40  102 1    
    81   41  103 1    
    82   41  104 1    
    83   41  105 1    
    84   42   43 am   BACKBONE|DICT|INTERRES
    85   42  106 1    
    86   43   44 2    
    87   43   45 1    
    88   45   46 1    
    89   45   49 1    
    90   45  107 1    
    91   46   47 1    
    92   46  108 1    
    93   46  109 1    
    94   47   48 1    
    95   48  110 1    
    96   48  111 1    
    97   49   50 am   BACKBONE|DICT|INTERRES
    98   49  112 1    
    99   50   51 2    
   100   50   52 1    
   101   52   53 1    
   102   52   54 1    
   103   52  113 1    
   104   53  114 1    
   105   53  115 1    
   106   53  116 1    
   107   54   55 am   BACKBONE|DICT|INTERRES
   108   54  117 1    
   109   55   56 2    
   110   55   57 1    
   111   57   58 1    
   112   57   59 1    
   113   57  118 1    
   114   58  119 1    
   115   58  120 1    
   116   58  121 1    
   117   59   60 am   BACKBONE|DICT|INTERRES
   118   59  122 1    
   119   60   61 2    
   120   60   62 1    
   121   62   63 1    
   122   62   64 1    
   123   62  123 1    
   124   63  124 1    
   125   63  125 1    
   126   63  126 1    
   127   64   65 am   BACKBONE|DICT|INTERRES
   128   64  127 1    
   129   65   66 2    
@<TRIPOS>SUBSTRUCTURE
     1 UNK         1 GROUP             0       ****    0 ROOT    
