@<TRIPOS>MOLECULE
3R135
127   129    1
SMALL
USER_CHARGES


@<TRIPOS>ATOM
      1 CA        -81.0146   29.9502  -76.2384 C.3       0 UNK        -0.1998 
      2 C         -80.6609   28.9772  -75.1246 C.2       0 UNK         0.4909 
      3 O         -79.6148   28.3328  -75.1851 O.2       0 UNK        -0.5240 
      4 N         -81.5267   28.8585  -74.1105 N.am      1 UNK        -0.4739 
      5 CA        -81.3500   27.9815  -72.9472 C.3       1 UNK         0.0864 
      6 C6        -82.0784   28.5280  -71.6873 C.3       11 UNK        -0.0881 
      7 S7        -81.6448   30.2515  -71.2623 S.3       11 UNK        -0.2682 
      8 C8        -80.4124   30.0348  -69.9383 C.3       11 UNK         0.0289 
      9 C9        -79.0585   29.6301  -70.4996 C.ar      11 UNK        -0.0687 
     10 C10       -78.6058   28.3125  -70.3844 C.ar      11 UNK        -0.0823 
     11 C11       -77.3780   27.9365  -70.9373 C.ar      11 UNK        -0.0830 
     12 C12       -76.5959   28.8926  -71.5937 C.ar      11 UNK        -0.1021 
     13 C13       -77.0342   30.2145  -71.7078 C.ar      11 UNK        -0.0753 
     14 C14       -78.2636   30.5781  -71.1516 C.ar      11 UNK        -0.0933 
     15 C15       -76.2144   31.2371  -72.4825 C.3       11 UNK         0.0166 
     16 S16       -75.0087   32.1159  -71.4353 S.3       11 UNK        -0.2615 
     17 C17       -73.6374   30.9139  -71.3675 C.3       11 UNK        -0.0865 
     18 CA        -72.8008   30.8779  -72.6872 C.3       10 UNK         0.0862 
     19 C         -71.4565   31.6657  -72.6018 C.2       10 UNK         0.5551 
     20 N         -70.3860   31.2171  -73.2477 N.am      10 UNK        -0.7319 
     21 O         -71.3875   32.7164  -71.9690 O.2       10 UNK        -0.5018 
     22 N         -72.6925   29.5201  -73.2466 N.am      10 UNK        -0.4509 
     23 C         -72.0855   28.4725  -72.6716 C.2       10 UNK         0.4899 
     24 O         -71.5722   28.5027  -71.5532 O.2       10 UNK        -0.4839 
     25 CA        -72.0491   27.1613  -73.4773 C.3       9 UNK         0.0222 
     26 CB        -73.1434   26.2122  -72.9720 C.3       9 UNK        -0.1966 
     27 N         -72.1874   27.3572  -74.9286 N.am      9 UNK        -0.4218 
     28 C         -71.2260   27.8945  -75.6970 C.2       9 UNK         0.5020 
     29 O         -70.1509   28.2919  -75.2416 O.2       9 UNK        -0.5274 
     30 CA        -71.5122   28.0571  -77.2054 C.3       8 UNK         0.0270 
     31 CB        -70.2231   28.2277  -78.0379 C.3       8 UNK        -0.1976 
     32 N         -72.3574   27.0116  -77.7941 N.am      8 UNK        -0.4313 
     33 C         -72.1454   25.6882  -77.8375 C.2       8 UNK         0.5041 
     34 O         -71.1821   25.1327  -77.3064 O.2       8 UNK        -0.5577 
     35 CA        -73.1860   24.8490  -78.6186 C.3       7 UNK         0.0284 
     36 CB        -73.0056   23.3345  -78.4050 C.3       7 UNK        -0.1958 
     37 N         -74.5692   25.2078  -78.2895 N.am      7 UNK        -0.4454 
     38 C         -75.2146   26.3113  -78.6926 C.2       7 UNK         0.5089 
     39 O         -74.7329   27.1229  -79.4834 O.2       7 UNK        -0.5125 
     40 CA        -76.5835   26.6113  -78.0545 C.3       6 UNK         0.0408 
     41 CB        -77.7229   26.2302  -79.0115 C.3       6 UNK        -0.1791 
     42 N         -76.8041   25.9642  -76.7579 N.am      6 UNK        -0.4762 
     43 C         -76.0425   26.1064  -75.6619 C.2       6 UNK         0.5007 
     44 O         -75.0280   26.8056  -75.6100 O.2       6 UNK        -0.5032 
     45 CA        -76.4759   25.3041  -74.4220 C.3       5 UNK         0.0783 
     46 C46       -77.4951   26.1215  -73.6025 C.3       11 UNK        -0.0857 
     47 S47       -77.8510   25.3970  -71.9683 S.3       11 UNK        -0.2512 
     48 C48       -76.9085   26.4902  -70.8538 C.3       11 UNK         0.0225 
     49 N         -76.9802   23.9780  -74.7879 N.am      5 UNK        -0.4615 
     50 C         -76.2121   22.9668  -75.2157 C.2       4 UNK         0.5053 
     51 O         -74.9879   23.0360  -75.3151 O.2       4 UNK        -0.5105 
     52 CA        -76.9285   21.6634  -75.6101 C.3       4 UNK         0.0263 
     53 CB        -77.0874   20.7479  -74.3857 C.3       4 UNK        -0.1981 
     54 N         -78.2422   21.9034  -76.2116 N.am      4 UNK        -0.4224 
     55 C         -78.4342   22.4203  -77.4344 C.2       3 UNK         0.4895 
     56 O         -77.5240   22.6594  -78.2278 O.2       3 UNK        -0.5091 
     57 CA        -79.8862   22.7645  -77.8206 C.3       3 UNK         0.0250 
     58 CB        -80.5620   21.5658  -78.5051 C.3       3 UNK        -0.1996 
     59 N         -80.7033   23.2071  -76.6818 N.am      3 UNK        -0.4254 
     60 C         -80.4498   24.3071  -75.9596 C.2       2 UNK         0.5004 
     61 O         -79.5208   25.0789  -76.2065 O.2       2 UNK        -0.5226 
     62 CA        -81.3213   24.5405  -74.7196 C.3       2 UNK         0.0269 
     63 CB        -80.9742   23.5090  -73.6242 C.3       2 UNK        -0.1926 
     64 N         -81.0917   25.9006  -74.2317 N.am      2 UNK        -0.4687 
     65 C         -81.7960   26.5413  -73.2929 C.2       1 UNK         0.5165 
     66 O         -82.7797   26.0486  -72.7365 O.2       1 UNK        -0.5079 
     67 H67       -80.2437   30.7154  -76.3247 H         1 UNK         0.0900 
     68 H68       -81.9679   30.4469  -76.0591 H         1 UNK         0.0900 
     69 H69       -81.0792   29.4224  -77.1895 H         1 UNK         0.0900 
     70 H70       -82.3760   29.4051  -74.1144 H         1 UNK         0.2959 
     71 H71       -80.2846   27.9312  -72.7096 H         1 UNK         0.1079 
     72 H72       -83.1600   28.5008  -71.8339 H         1 UNK         0.0837 
     73 H73       -81.8789   27.8864  -70.8270 H         1 UNK         0.0837 
     74 H74       -80.3081   30.9777  -69.3996 H         1 UNK         0.0685 
     75 H75       -80.7719   29.3070  -69.2091 H         1 UNK         0.0685 
     76 H76       -79.2177   27.5718  -69.8877 H         1 UNK         0.1434 
     77 H77       -75.6582   28.5994  -72.0444 H         1 UNK         0.1329 
     78 H78       -78.6170   31.5957  -71.2484 H         1 UNK         0.1335 
     79 H79       -75.7035   30.7543  -73.3167 H         1 UNK         0.0680 
     80 H80       -76.8816   31.9748  -72.9309 H         1 UNK         0.0680 
     81 H81       -74.0541   29.9366  -71.1294 H         1 UNK         0.1032 
     82 H82       -73.0115   31.1534  -70.5058 H         1 UNK         0.1032 
     83 H83       -73.3538   31.4176  -73.4563 H         1 UNK         0.0461 
     84 H84       -70.4241   30.3549  -73.7712 H         1 UNK         0.3453 
     85 H85       -69.5249   31.7382  -73.1967 H         1 UNK         0.3453 
     86 H86       -73.0746   29.3949  -74.1724 H         1 UNK         0.2984 
     87 H87       -71.0827   26.6865  -73.2944 H         1 UNK         0.0554 
     88 H88       -73.1732   25.2896  -73.5523 H         1 UNK         0.0847 
     89 H89       -74.1236   26.6857  -73.0183 H         1 UNK         0.0847 
     90 H90       -72.9682   25.9364  -71.9312 H         1 UNK         0.0847 
     91 H91       -73.0713   27.0836  -75.3508 H         1 UNK         0.3141 
     92 H92       -72.0815   28.9833  -77.2957 H         1 UNK         0.0743 
     93 H93       -69.5741   27.3549  -77.9567 H         1 UNK         0.0784 
     94 H94       -70.4489   28.3806  -79.0932 H         1 UNK         0.0784 
     95 H95       -69.6489   29.0931  -77.7045 H         1 UNK         0.0784 
     96 H96       -73.1852   27.3420  -78.2821 H         1 UNK         0.3213 
     97 H97       -73.0227   25.0547  -79.6787 H         1 UNK         0.0855 
     98 H98       -73.1187   23.0610  -77.3552 H         1 UNK         0.0814 
     99 H99       -72.0140   23.0089  -78.7220 H         1 UNK         0.0814 
    100 H100      -73.7323   22.7614  -78.9812 H         1 UNK         0.0814 
    101 H101      -75.0326   24.6237  -77.6071 H         1 UNK         0.3105 
    102 H102      -76.6301   27.6886  -77.8838 H         1 UNK         0.0547 
    103 H103      -77.6221   26.7495  -79.9654 H         1 UNK         0.0837 
    104 H104      -77.7309   25.1608  -79.2223 H         1 UNK         0.0837 
    105 H105      -78.6955   26.4981  -78.5978 H         1 UNK         0.0837 
    106 H106      -77.6668   25.4337  -76.6640 H         1 UNK         0.3020 
    107 H107      -75.5895   25.1506  -73.8075 H         1 UNK         0.1245 
    108 H108      -78.4344   26.2014  -74.1433 H         1 UNK         0.0781 
    109 H109      -77.1525   27.1482  -73.4872 H         1 UNK         0.0781 
    110 H110      -75.8458   26.4115  -71.0878 H         1 UNK         0.0836 
    111 H111      -77.0209   26.1323  -69.8294 H         1 UNK         0.0836 
    112 H112      -77.9814   23.8614  -74.7659 H         1 UNK         0.3022 
    113 H113      -76.3033   21.1495  -76.3437 H         1 UNK         0.0747 
    114 H114      -77.5323   19.7912  -74.6604 H         1 UNK         0.0793 
    115 H115      -76.1187   20.5341  -73.9317 H         1 UNK         0.0793 
    116 H116      -77.7138   21.2025  -73.6169 H         1 UNK         0.0793 
    117 H117      -79.0510   21.7119  -75.6394 H         1 UNK         0.3047 
    118 H118      -79.8442   23.5878  -78.5372 H         1 UNK         0.0822 
    119 H119      -81.5577   21.8242  -78.8661 H         1 UNK         0.0807 
    120 H120      -80.6588   20.7144  -77.8302 H         1 UNK         0.0807 
    121 H121      -79.9835   21.2331  -79.3682 H         1 UNK         0.0807 
    122 H122      -81.4820   22.6171  -76.4242 H         1 UNK         0.2946 
    123 H123      -82.3702   24.4426  -75.0079 H         1 UNK         0.1144 
    124 H124      -79.9341   23.5918  -73.3077 H         1 UNK         0.0793 
    125 H125      -81.1298   22.4878  -73.9736 H         1 UNK         0.0793 
    126 H126      -81.5983   23.6339  -72.7397 H         1 UNK         0.0793 
    127 H127      -80.3456   26.4004  -74.7106 H         1 UNK         0.2896 
@<TRIPOS>BOND
     1    1    2 1    
     2    1   67 1    
     3    1   68 1    
     4    1   69 1    
     5    2    3 2    
     6    2    4 am   BACKBONE|DICT|INTERRES
     7    4    5 1    
     8    4   70 1    
     9    5    6 1    
    10    5   65 1    
    11    5   71 1    
    12    6    7 1    
    13    6   72 1    
    14    6   73 1    
    15    7    8 1    
    16    8    9 1    
    17    8   74 1    
    18    8   75 1    
    19    9   10 ar   
    20    9   14 ar   
    21   10   11 ar   
    22   10   76 1    
    23   11   12 ar   
    24   11   48 1    
    25   12   13 ar   
    26   12   77 1    
    27   13   14 ar   
    28   13   15 1    
    29   14   78 1    
    30   15   16 1    
    31   15   79 1    
    32   15   80 1    
    33   16   17 1    
    34   17   18 1    
    35   17   81 1    
    36   17   82 1    
    37   18   19 1    
    38   18   22 1    
    39   18   83 1    
    40   19   20 am   BACKBONE|DICT|INTERRES
    41   19   21 2    
    42   20   84 1    
    43   20   85 1    
    44   22   23 am   BACKBONE|DICT|INTERRES
    45   22   86 1    
    46   23   24 2    
    47   23   25 1    
    48   25   26 1    
    49   25   27 1    
    50   25   87 1    
    51   26   88 1    
    52   26   89 1    
    53   26   90 1    
    54   27   28 am   BACKBONE|DICT|INTERRES
    55   27   91 1    
    56   28   29 2    
    57   28   30 1    
    58   30   31 1    
    59   30   32 1    
    60   30   92 1    
    61   31   93 1    
    62   31   94 1    
    63   31   95 1    
    64   32   33 am   BACKBONE|DICT|INTERRES
    65   32   96 1    
    66   33   34 2    
    67   33   35 1    
    68   35   36 1    
    69   35   37 1    
    70   35   97 1    
    71   36   98 1    
    72   36   99 1    
    73   36  100 1    
    74   37   38 am   BACKBONE|DICT|INTERRES
    75   37  101 1    
    76   38   39 2    
    77   38   40 1    
    78   40   41 1    
    79   40   42 1    
    80   40  102 1    
    81   41  103 1    
    82   41  104 1    
    83   41  105 1    
    84   42   43 am   BACKBONE|DICT|INTERRES
    85   42  106 1    
    86   43   44 2    
    87   43   45 1    
    88   45   46 1    
    89   45   49 1    
    90   45  107 1    
    91   46   47 1    
    92   46  108 1    
    93   46  109 1    
    94   47   48 1    
    95   48  110 1    
    96   48  111 1    
    97   49   50 am   BACKBONE|DICT|INTERRES
    98   49  112 1    
    99   50   51 2    
   100   50   52 1    
   101   52   53 1    
   102   52   54 1    
   103   52  113 1    
   104   53  114 1    
   105   53  115 1    
   106   53  116 1    
   107   54   55 am   BACKBONE|DICT|INTERRES
   108   54  117 1    
   109   55   56 2    
   110   55   57 1    
   111   57   58 1    
   112   57   59 1    
   113   57  118 1    
   114   58  119 1    
   115   58  120 1    
   116   58  121 1    
   117   59   60 am   BACKBONE|DICT|INTERRES
   118   59  122 1    
   119   60   61 2    
   120   60   62 1    
   121   62   63 1    
   122   62   64 1    
   123   62  123 1    
   124   63  124 1    
   125   63  125 1    
   126   63  126 1    
   127   64   65 am   BACKBONE|DICT|INTERRES
   128   64  127 1    
   129   65   66 2    
@<TRIPOS>SUBSTRUCTURE
     1 UNK         1 GROUP             0       ****    0 ROOT    
