@<TRIPOS>MOLECULE
3R135
127   129    1
SMALL
USER_CHARGES


@<TRIPOS>ATOM
      1 CA        -80.1137   30.2780  -75.7800 C.3       0 UNK        -0.1998 
      2 C         -80.0655   29.1498  -74.7619 C.2       0 UNK         0.4909 
      3 O         -79.1167   28.3687  -74.7626 O.2       0 UNK        -0.5240 
      4 N         -81.0845   29.0482  -73.8988 N.am      1 UNK        -0.4739 
      5 CA        -81.1813   28.0603  -72.8159 C.3       1 UNK         0.0864 
      6 C6        -82.0544   28.5689  -71.6349 C.3       11 UNK        -0.0881 
      7 S7        -81.5792   30.2201  -71.0127 S.3       11 UNK        -0.2682 
      8 C8        -80.4833   29.8173  -69.6141 C.3       11 UNK         0.0289 
      9 C9        -79.1144   29.3480  -70.0844 C.ar      11 UNK        -0.0687 
     10 C10       -78.7303   28.0109  -69.9297 C.ar      11 UNK        -0.0823 
     11 C11       -77.4806   27.5793  -70.3849 C.ar      11 UNK        -0.0830 
     12 C12       -76.6056   28.5003  -70.9655 C.ar      11 UNK        -0.1021 
     13 C13       -76.9885   29.8275  -71.1543 C.ar      11 UNK        -0.0753 
     14 C14       -78.2381   30.2528  -70.6956 C.ar      11 UNK        -0.0933 
     15 C15       -76.0724   30.7657  -71.9220 C.3       11 UNK         0.0166 
     16 S16       -76.3878   30.6013  -73.7058 S.3       11 UNK        -0.2615 
     17 C17       -74.9202   31.3981  -74.4361 C.3       11 UNK        -0.0865 
     18 CA        -74.0130   30.3756  -75.1844 C.3       10 UNK         0.0862 
     19 C         -72.9861   31.0559  -76.1441 C.2       10 UNK         0.5551 
     20 N         -71.8177   30.4745  -76.3907 N.am      10 UNK        -0.7319 
     21 O         -73.2598   32.1164  -76.7014 O.2       10 UNK        -0.5018 
     22 N         -73.4329   29.3491  -74.2992 N.am      10 UNK        -0.4509 
     23 C         -72.5143   29.5654  -73.3480 C.2       10 UNK         0.4899 
     24 O         -72.1437   30.6845  -72.9922 O.2       10 UNK        -0.4839 
     25 CA        -71.8591   28.3334  -72.6945 C.3       9 UNK         0.0222 
     26 CB        -72.5186   28.0164  -71.3430 C.3       9 UNK        -0.1966 
     27 N         -71.8373   27.1151  -73.5124 N.am      9 UNK        -0.4218 
     28 C         -71.3012   26.9774  -74.7339 C.2       9 UNK         0.5020 
     29 O         -70.8022   27.9039  -75.3744 O.2       9 UNK        -0.5274 
     30 CA        -71.3102   25.5684  -75.3437 C.3       8 UNK         0.0270 
     31 CB        -71.5291   24.4385  -74.3156 C.3       8 UNK        -0.1976 
     32 N         -72.3508   25.4914  -76.3663 N.am      8 UNK        -0.4313 
     33 C         -72.1609   25.0957  -77.6319 C.2       8 UNK         0.5041 
     34 O         -71.0572   24.7947  -78.0908 O.2       8 UNK        -0.5577 
     35 CA        -73.3923   24.9755  -78.5536 C.3       7 UNK         0.0284 
     36 CB        -73.6756   23.4976  -78.8722 C.3       7 UNK        -0.1958 
     37 N         -74.6123   25.5771  -78.0131 N.am      7 UNK        -0.4454 
     38 C         -74.8561   26.8921  -77.9418 C.2       7 UNK         0.5089 
     39 O         -74.0952   27.7579  -78.3730 O.2       7 UNK        -0.5125 
     40 CA        -76.1547   27.3097  -77.2311 C.3       6 UNK         0.0408 
     41 CB        -77.3314   27.3331  -78.2180 C.3       6 UNK        -0.1791 
     42 N         -76.4951   26.4560  -76.0904 N.am      6 UNK        -0.4762 
     43 C         -75.7279   26.2584  -75.0084 C.2       6 UNK         0.5007 
     44 O         -74.6135   26.7602  -74.8566 O.2       6 UNK        -0.5032 
     45 CA        -76.2790   25.3016  -73.9359 C.3       5 UNK         0.0783 
     46 C46       -77.4222   25.9793  -73.1510 C.3       11 UNK        -0.0857 
     47 S47       -77.8825   25.1088  -71.6136 S.3       11 UNK        -0.2512 
     48 C48       -77.0847   26.1108  -70.3105 C.3       11 UNK         0.0225 
     49 N         -76.7018   24.0382  -74.5427 N.am      5 UNK        -0.4615 
     50 C         -75.8747   23.1290  -75.0745 C.2       4 UNK         0.5053 
     51 O         -74.6486   23.2155  -75.0418 O.2       4 UNK        -0.5105 
     52 CA        -76.5263   21.9273  -75.7800 C.3       4 UNK         0.0263 
     53 CB        -76.7763   20.7878  -74.7794 C.3       4 UNK        -0.1981 
     54 N         -77.7824   22.2697  -76.4534 N.am      4 UNK        -0.4224 
     55 C         -77.8762   23.0674  -77.5277 C.2       3 UNK         0.4895 
     56 O         -76.9079   23.5789  -78.0904 O.2       3 UNK        -0.5091 
     57 CA        -79.2998   23.3884  -78.0209 C.3       3 UNK         0.0250 
     58 CB        -79.8463   22.2454  -78.8913 C.3       3 UNK        -0.1996 
     59 N         -80.2395   23.6763  -76.9277 N.am      3 UNK        -0.4254 
     60 C         -80.0862   24.6907  -76.0658 C.2       2 UNK         0.5004 
     61 O         -79.1454   25.4839  -76.1236 O.2       2 UNK        -0.5226 
     62 CA        -81.1047   24.8128  -74.9246 C.3       2 UNK         0.0269 
     63 CB        -80.9186   23.6630  -73.9123 C.3       2 UNK        -0.1926 
     64 N         -80.8967   26.1052  -74.2722 N.am      2 UNK        -0.4687 
     65 C         -81.6671   26.6918  -73.3524 C.2       1 UNK         0.5165 
     66 O         -82.7267   26.2060  -72.9509 O.2       1 UNK        -0.5079 
     67 H67       -79.2394   30.9184  -75.6646 H         1 UNK         0.0900 
     68 H68       -80.1069   29.8704  -76.7904 H         1 UNK         0.0900 
     69 H69       -81.0051   30.8943  -75.6651 H         1 UNK         0.0900 
     70 H70       -81.8461   29.7094  -73.9483 H         1 UNK         0.2959 
     71 H71       -80.1754   27.8937  -72.4230 H         1 UNK         0.1079 
     72 H72       -82.0279   27.8554  -70.8091 H         1 UNK         0.0837 
     73 H73       -83.1007   28.6336  -71.9398 H         1 UNK         0.0837 
     74 H74       -80.9593   29.0726  -68.9743 H         1 UNK         0.0685 
     75 H75       -80.3583   30.7103  -69.0001 H         1 UNK         0.0685 
     76 H76       -79.4117   27.2994  -69.4836 H         1 UNK         0.1434 
     77 H77       -75.6515   28.1680  -71.3453 H         1 UNK         0.1329 
     78 H78       -78.5458   31.2785  -70.8470 H         1 UNK         0.1335 
     79 H79       -75.0297   30.5267  -71.7068 H         1 UNK         0.0680 
     80 H80       -76.2304   31.8003  -71.6140 H         1 UNK         0.0680 
     81 H81       -74.3589   31.9418  -73.6754 H         1 UNK         0.1032 
     82 H82       -75.2940   32.1569  -75.1256 H         1 UNK         0.1032 
     83 H83       -74.6589   29.8208  -75.8624 H         1 UNK         0.0461 
     84 H84       -71.1709   30.9197  -77.0212 H         1 UNK         0.3453 
     85 H85       -71.5721   29.5869  -75.9616 H         1 UNK         0.3453 
     86 H86       -73.7021   28.3911  -74.5074 H         1 UNK         0.2984 
     87 H87       -70.8184   28.6027  -72.5034 H         1 UNK         0.0554 
     88 H88       -72.6305   28.9150  -70.7342 H         1 UNK         0.0847 
     89 H89       -71.9189   27.3116  -70.7668 H         1 UNK         0.0847 
     90 H90       -73.5079   27.5810  -71.4738 H         1 UNK         0.0847 
     91 H91       -72.2451   26.2923  -73.0942 H         1 UNK         0.3141 
     92 H92       -70.3230   25.4260  -75.7878 H         1 UNK         0.0743 
     93 H93       -70.7888   24.4799  -73.5153 H         1 UNK         0.0784 
     94 H94       -72.5206   24.4774  -73.8628 H         1 UNK         0.0784 
     95 H95       -71.4313   23.4616  -74.7897 H         1 UNK         0.0784 
     96 H96       -73.2787   25.7794  -76.0730 H         1 UNK         0.3213 
     97 H97       -73.1458   25.4850  -79.4876 H         1 UNK         0.0855 
     98 H98       -73.9411   22.9382  -77.9741 H         1 UNK         0.0814 
     99 H99       -72.8021   23.0146  -79.3123 H         1 UNK         0.0814 
    100 H100      -74.4942   23.3947  -79.5848 H         1 UNK         0.0814 
    101 H101      -75.3312   24.9380  -77.6891 H         1 UNK         0.3105 
    102 H102      -76.0199   28.3215  -76.8491 H         1 UNK         0.0547 
    103 H103      -77.1186   27.9836  -79.0671 H         1 UNK         0.0837 
    104 H104      -78.2376   27.7067  -77.7401 H         1 UNK         0.0837 
    105 H105      -77.5472   26.3387  -78.6105 H         1 UNK         0.0837 
    106 H106      -77.4234   26.0339  -76.1107 H         1 UNK         0.3020 
    107 H107      -75.4606   25.0916  -73.2435 H         1 UNK         0.1245 
    108 H108      -78.3140   26.0277  -73.7680 H         1 UNK         0.0781 
    109 H109      -77.1850   27.0200  -72.9480 H         1 UNK         0.0781 
    110 H110      -76.0021   25.9998  -70.3900 H         1 UNK         0.0836 
    111 H111      -77.3600   25.7076  -69.3349 H         1 UNK         0.0836 
    112 H112      -77.6958   23.9025  -74.6397 H         1 UNK         0.3022 
    113 H113      -75.8247   21.5706  -76.5374 H         1 UNK         0.0747 
    114 H114      -77.1645   19.8995  -75.2780 H         1 UNK         0.0793 
    115 H115      -75.8502   20.4983  -74.2805 H         1 UNK         0.0793 
    116 H116      -77.4869   21.0773  -74.0041 H         1 UNK         0.0793 
    117 H117      -78.6316   21.8907  -76.0609 H         1 UNK         0.3047 
    118 H118      -79.2329   24.2845  -78.6417 H         1 UNK         0.0822 
    119 H119      -80.8102   22.5063  -79.3287 H         1 UNK         0.0807 
    120 H120      -79.9740   21.3243  -78.3213 H         1 UNK         0.0807 
    121 H121      -79.1675   22.0263  -79.7170 H         1 UNK         0.0807 
    122 H122      -81.0322   23.0579  -76.8291 H         1 UNK         0.2946 
    123 H123      -82.1113   24.7863  -75.3469 H         1 UNK         0.1144 
    124 H124      -79.9231   23.6758  -73.4673 H         1 UNK         0.0793 
    125 H125      -81.0534   22.6898  -74.3853 H         1 UNK         0.0793 
    126 H126      -81.6436   23.7203  -73.1007 H         1 UNK         0.0793 
    127 H127      -80.0794   26.6134  -74.6093 H         1 UNK         0.2896 
@<TRIPOS>BOND
     1    1    2 1    
     2    1   67 1    
     3    1   68 1    
     4    1   69 1    
     5    2    3 2    
     6    2    4 am   BACKBONE|DICT|INTERRES
     7    4    5 1    
     8    4   70 1    
     9    5    6 1    
    10    5   65 1    
    11    5   71 1    
    12    6    7 1    
    13    6   72 1    
    14    6   73 1    
    15    7    8 1    
    16    8    9 1    
    17    8   74 1    
    18    8   75 1    
    19    9   10 ar   
    20    9   14 ar   
    21   10   11 ar   
    22   10   76 1    
    23   11   12 ar   
    24   11   48 1    
    25   12   13 ar   
    26   12   77 1    
    27   13   14 ar   
    28   13   15 1    
    29   14   78 1    
    30   15   16 1    
    31   15   79 1    
    32   15   80 1    
    33   16   17 1    
    34   17   18 1    
    35   17   81 1    
    36   17   82 1    
    37   18   19 1    
    38   18   22 1    
    39   18   83 1    
    40   19   20 am   BACKBONE|DICT|INTERRES
    41   19   21 2    
    42   20   84 1    
    43   20   85 1    
    44   22   23 am   BACKBONE|DICT|INTERRES
    45   22   86 1    
    46   23   24 2    
    47   23   25 1    
    48   25   26 1    
    49   25   27 1    
    50   25   87 1    
    51   26   88 1    
    52   26   89 1    
    53   26   90 1    
    54   27   28 am   BACKBONE|DICT|INTERRES
    55   27   91 1    
    56   28   29 2    
    57   28   30 1    
    58   30   31 1    
    59   30   32 1    
    60   30   92 1    
    61   31   93 1    
    62   31   94 1    
    63   31   95 1    
    64   32   33 am   BACKBONE|DICT|INTERRES
    65   32   96 1    
    66   33   34 2    
    67   33   35 1    
    68   35   36 1    
    69   35   37 1    
    70   35   97 1    
    71   36   98 1    
    72   36   99 1    
    73   36  100 1    
    74   37   38 am   BACKBONE|DICT|INTERRES
    75   37  101 1    
    76   38   39 2    
    77   38   40 1    
    78   40   41 1    
    79   40   42 1    
    80   40  102 1    
    81   41  103 1    
    82   41  104 1    
    83   41  105 1    
    84   42   43 am   BACKBONE|DICT|INTERRES
    85   42  106 1    
    86   43   44 2    
    87   43   45 1    
    88   45   46 1    
    89   45   49 1    
    90   45  107 1    
    91   46   47 1    
    92   46  108 1    
    93   46  109 1    
    94   47   48 1    
    95   48  110 1    
    96   48  111 1    
    97   49   50 am   BACKBONE|DICT|INTERRES
    98   49  112 1    
    99   50   51 2    
   100   50   52 1    
   101   52   53 1    
   102   52   54 1    
   103   52  113 1    
   104   53  114 1    
   105   53  115 1    
   106   53  116 1    
   107   54   55 am   BACKBONE|DICT|INTERRES
   108   54  117 1    
   109   55   56 2    
   110   55   57 1    
   111   57   58 1    
   112   57   59 1    
   113   57  118 1    
   114   58  119 1    
   115   58  120 1    
   116   58  121 1    
   117   59   60 am   BACKBONE|DICT|INTERRES
   118   59  122 1    
   119   60   61 2    
   120   60   62 1    
   121   62   63 1    
   122   62   64 1    
   123   62  123 1    
   124   63  124 1    
   125   63  125 1    
   126   63  126 1    
   127   64   65 am   BACKBONE|DICT|INTERRES
   128   64  127 1    
   129   65   66 2    
@<TRIPOS>SUBSTRUCTURE
     1 UNK         1 GROUP             0       ****    0 ROOT    
