@<TRIPOS>MOLECULE
3R135
127   129    1
SMALL
USER_CHARGES


@<TRIPOS>ATOM
      1 CA        -76.0277   29.8272  -75.8075 C.3       0 UNK        -0.1998 
      2 C         -76.6029   28.5274  -75.2672 C.2       0 UNK         0.4909 
      3 O         -76.0175   27.4626  -75.4720 O.2       0 UNK        -0.5240 
      4 N         -77.7600   28.6099  -74.5928 N.am      1 UNK        -0.4739 
      5 CA        -78.4919   27.4586  -74.0523 C.3       1 UNK         0.0864 
      6 C6        -79.6209   27.8957  -73.0843 C.3       11 UNK        -0.0881 
      7 S7        -80.1371   26.5517  -71.9586 S.3       11 UNK        -0.2682 
      8 C8        -79.2874   27.0005  -70.4083 C.3       11 UNK         0.0289 
      9 C9        -77.7751   27.0230  -70.5775 C.ar      11 UNK        -0.0687 
     10 C10       -77.0649   25.8282  -70.7181 C.ar      11 UNK        -0.0823 
     11 C11       -75.6840   25.8404  -70.9447 C.ar      11 UNK        -0.0830 
     12 C12       -75.0090   27.0652  -70.9837 C.ar      11 UNK        -0.1021 
     13 C13       -75.7047   28.2670  -70.8122 C.ar      11 UNK        -0.0753 
     14 C14       -77.0873   28.2382  -70.6121 C.ar      11 UNK        -0.0933 
     15 C15       -74.9752   29.6020  -70.8297 C.3       11 UNK         0.0166 
     16 S16       -75.3621   30.5431  -72.3359 S.3       11 UNK        -0.2615 
     17 C17       -74.6245   32.1610  -71.9393 C.3       11 UNK        -0.0865 
     18 CA        -74.2400   32.9623  -73.2100 C.3       10 UNK         0.0862 
     19 C         -73.8328   34.4120  -72.8247 C.2       10 UNK         0.5551 
     20 N         -74.7763   35.3444  -72.8337 N.am      10 UNK        -0.7319 
     21 O         -72.6851   34.6845  -72.4745 O.2       10 UNK        -0.5018 
     22 N         -73.1996   32.2701  -73.9861 N.am      10 UNK        -0.4509 
     23 C         -72.7454   32.6513  -75.1886 C.2       10 UNK         0.4899 
     24 O         -73.2269   33.5762  -75.8436 O.2       10 UNK        -0.4839 
     25 CA        -71.5423   31.8797  -75.7618 C.3       9 UNK         0.0222 
     26 CB        -70.2415   32.6596  -75.5065 C.3       9 UNK        -0.1966 
     27 N         -71.4128   30.5306  -75.2027 N.am      9 UNK        -0.4218 
     28 C         -72.1099   29.4707  -75.6296 C.2       9 UNK         0.5020 
     29 O         -72.8825   29.4916  -76.5913 O.2       9 UNK        -0.5274 
     30 CA        -71.9143   28.1737  -74.8395 C.3       8 UNK         0.0270 
     31 CB        -72.6681   28.2099  -73.4993 C.3       8 UNK        -0.1976 
     32 N         -72.3985   27.0538  -75.6387 N.am      8 UNK        -0.4313 
     33 C         -71.9276   25.8056  -75.5764 C.2       8 UNK         0.5041 
     34 O         -71.0522   25.4470  -74.7856 O.2       8 UNK        -0.5577 
     35 CA        -72.5291   24.7973  -76.5646 C.3       7 UNK         0.0284 
     36 CB        -72.1647   23.3355  -76.2317 C.3       7 UNK        -0.1958 
     37 N         -73.9842   24.9360  -76.6366 N.am      7 UNK        -0.4454 
     38 C         -74.7166   24.6656  -77.7238 C.2       7 UNK         0.5089 
     39 O         -74.2258   24.4199  -78.8277 O.2       7 UNK        -0.5125 
     40 CA        -76.2507   24.6309  -77.5431 C.3       6 UNK         0.0408 
     41 CB        -76.9559   23.8508  -78.6731 C.3       6 UNK        -0.1791 
     42 N         -76.6875   24.1143  -76.2385 N.am      6 UNK        -0.4762 
     43 C         -76.3491   22.9509  -75.6599 C.2       6 UNK         0.5007 
     44 O         -75.5987   22.1135  -76.1625 O.2       6 UNK        -0.5032 
     45 CA        -76.9958   22.6681  -74.2924 C.3       5 UNK         0.0783 
     46 C46       -76.6424   23.7106  -73.2032 C.3       11 UNK        -0.0857 
     47 S47       -74.8707   23.9945  -72.8788 S.3       11 UNK        -0.2512 
     48 C48       -74.9226   24.5313  -71.1331 C.3       11 UNK         0.0225 
     49 N         -78.4494   22.5877  -74.4416 N.am      5 UNK        -0.4615 
     50 C         -79.1175   21.5294  -74.9120 C.2       4 UNK         0.5053 
     51 O         -78.5728   20.4915  -75.2877 O.2       4 UNK        -0.5105 
     52 CA        -80.6497   21.6146  -74.9310 C.3       4 UNK         0.0263 
     53 CB        -81.2163   21.1434  -73.5757 C.3       4 UNK        -0.1981 
     54 N         -81.1637   22.9493  -75.2682 N.am      4 UNK        -0.4224 
     55 C         -82.4174   23.1696  -75.6971 C.2       3 UNK         0.4895 
     56 O         -83.2435   22.2725  -75.8731 O.2       3 UNK        -0.5091 
     57 CA        -82.8549   24.6224  -75.9672 C.3       3 UNK         0.0250 
     58 CB        -83.6016   25.1868  -74.7471 C.3       3 UNK        -0.1996 
     59 N         -81.7615   25.5296  -76.3106 N.am      3 UNK        -0.4254 
     60 C         -81.0096   25.4608  -77.4167 C.2       2 UNK         0.5004 
     61 O         -81.1919   24.6412  -78.3170 O.2       2 UNK        -0.5226 
     62 CA        -79.8494   26.4676  -77.5428 C.3       2 UNK         0.0269 
     63 CB        -80.1779   27.5373  -78.5969 C.3       2 UNK        -0.1926 
     64 N         -79.4424   27.1387  -76.2996 N.am      2 UNK        -0.4687 
     65 C         -79.0254   26.5410  -75.1726 C.2       1 UNK         0.5165 
     66 O         -79.0312   25.3200  -75.0120 O.2       1 UNK        -0.5079 
     67 H67       -75.1231   30.0898  -75.2620 H         1 UNK         0.0900 
     68 H68       -76.7297   30.6554  -75.7151 H         1 UNK         0.0900 
     69 H69       -75.7680   29.7163  -76.8599 H         1 UNK         0.0900 
     70 H70       -78.1779   29.5162  -74.4379 H         1 UNK         0.2959 
     71 H71       -77.7620   26.8808  -73.4823 H         1 UNK         0.1079 
     72 H72       -80.4949   28.2552  -73.6309 H         1 UNK         0.0837 
     73 H73       -79.2907   28.7410  -72.4788 H         1 UNK         0.0837 
     74 H74       -79.6556   27.9679  -70.0629 H         1 UNK         0.0685 
     75 H75       -79.5543   26.2778  -69.6360 H         1 UNK         0.0685 
     76 H76       -77.6003   24.8907  -70.6737 H         1 UNK         0.1434 
     77 H77       -73.9403   27.0806  -71.1404 H         1 UNK         0.1329 
     78 H78       -77.6273   29.1680  -70.4965 H         1 UNK         0.1335 
     79 H79       -73.8960   29.4564  -70.7615 H         1 UNK         0.0680 
     80 H80       -75.2685   30.1823  -69.9535 H         1 UNK         0.0680 
     81 H81       -73.7509   32.0200  -71.2994 H         1 UNK         0.1032 
     82 H82       -75.3531   32.7129  -71.3416 H         1 UNK         0.1032 
     83 H83       -75.1223   33.0239  -73.8510 H         1 UNK         0.0461 
     84 H84       -75.7224   35.1277  -73.1092 H         1 UNK         0.3453 
     85 H85       -74.5358   36.2875  -72.5708 H         1 UNK         0.3453 
     86 H86       -72.7451   31.5004  -73.5218 H         1 UNK         0.2984 
     87 H87       -71.6823   31.8044  -76.8427 H         1 UNK         0.0554 
     88 H88       -69.3828   32.1599  -75.9556 H         1 UNK         0.0847 
     89 H89       -70.0427   32.7803  -74.4406 H         1 UNK         0.0847 
     90 H90       -70.2952   33.6590  -75.9410 H         1 UNK         0.0847 
     91 H91       -70.7786   30.4181  -74.4240 H         1 UNK         0.3141 
     92 H92       -70.8446   28.0536  -74.6540 H         1 UNK         0.0743 
     93 H93       -72.3597   29.0563  -72.8854 H         1 UNK         0.0784 
     94 H94       -73.7464   28.2834  -73.6485 H         1 UNK         0.0784 
     95 H95       -72.4733   27.3054  -72.9237 H         1 UNK         0.0784 
     96 H96       -73.0899   27.3057  -76.3361 H         1 UNK         0.3213 
     97 H97       -72.0951   25.0415  -77.5366 H         1 UNK         0.0855 
     98 H98       -71.0837   23.1931  -76.2074 H         1 UNK         0.0814 
     99 H99       -72.5637   22.6461  -76.9760 H         1 UNK         0.0814 
    100 H100      -72.5589   23.0391  -75.2588 H         1 UNK         0.0814 
    101 H101      -74.4617   25.1762  -75.7766 H         1 UNK         0.3105 
    102 H102      -76.5849   25.6680  -77.5892 H         1 UNK         0.0547 
    103 H103      -76.7828   24.3207  -79.6420 H         1 UNK         0.0837 
    104 H104      -76.5903   22.8253  -78.7387 H         1 UNK         0.0837 
    105 H105      -78.0341   23.8066  -78.5221 H         1 UNK         0.0837 
    106 H106      -77.3510   24.6983  -75.7393 H         1 UNK         0.3020 
    107 H107      -76.6257   21.6966  -73.9555 H         1 UNK         0.1245 
    108 H108      -77.1056   23.3824  -72.2726 H         1 UNK         0.0781 
    109 H109      -77.0846   24.6780  -73.4340 H         1 UNK         0.0781 
    110 H110      -73.8988   24.6443  -70.7732 H         1 UNK         0.0836 
    111 H111      -75.3689   23.7443  -70.5233 H         1 UNK         0.0836 
    112 H112      -78.9526   23.4338  -74.2077 H         1 UNK         0.3022 
    113 H113      -80.9844   20.9182  -75.7034 H         1 UNK         0.0747 
    114 H114      -82.3006   21.0384  -73.6064 H         1 UNK         0.0793 
    115 H115      -80.8105   20.1696  -73.2974 H         1 UNK         0.0793 
    116 H116      -80.9708   21.8412  -72.7742 H         1 UNK         0.0793 
    117 H117      -80.5248   23.7329  -75.2022 H         1 UNK         0.3047 
    118 H118      -83.5456   24.6007  -76.8130 H         1 UNK         0.0822 
    119 H119      -84.0038   26.1794  -74.9507 H         1 UNK         0.0807 
    120 H120      -82.9513   25.2592  -73.8738 H         1 UNK         0.0807 
    121 H121      -84.4435   24.5487  -74.4743 H         1 UNK         0.0807 
    122 H122      -81.5284   26.2372  -75.6299 H         1 UNK         0.2946 
    123 H123      -78.9891   25.8998  -77.8969 H         1 UNK         0.1144 
    124 H124      -80.4524   27.0798  -79.5486 H         1 UNK         0.0793 
    125 H125      -79.3211   28.1838  -78.7883 H         1 UNK         0.0793 
    126 H126      -81.0126   28.1665  -78.2853 H         1 UNK         0.0793 
    127 H127      -79.3949   28.1469  -76.3343 H         1 UNK         0.2896 
@<TRIPOS>BOND
     1    1    2 1    
     2    1   67 1    
     3    1   68 1    
     4    1   69 1    
     5    2    3 2    
     6    2    4 am   BACKBONE|DICT|INTERRES
     7    4    5 1    
     8    4   70 1    
     9    5    6 1    
    10    5   65 1    
    11    5   71 1    
    12    6    7 1    
    13    6   72 1    
    14    6   73 1    
    15    7    8 1    
    16    8    9 1    
    17    8   74 1    
    18    8   75 1    
    19    9   10 ar   
    20    9   14 ar   
    21   10   11 ar   
    22   10   76 1    
    23   11   12 ar   
    24   11   48 1    
    25   12   13 ar   
    26   12   77 1    
    27   13   14 ar   
    28   13   15 1    
    29   14   78 1    
    30   15   16 1    
    31   15   79 1    
    32   15   80 1    
    33   16   17 1    
    34   17   18 1    
    35   17   81 1    
    36   17   82 1    
    37   18   19 1    
    38   18   22 1    
    39   18   83 1    
    40   19   20 am   BACKBONE|DICT|INTERRES
    41   19   21 2    
    42   20   84 1    
    43   20   85 1    
    44   22   23 am   BACKBONE|DICT|INTERRES
    45   22   86 1    
    46   23   24 2    
    47   23   25 1    
    48   25   26 1    
    49   25   27 1    
    50   25   87 1    
    51   26   88 1    
    52   26   89 1    
    53   26   90 1    
    54   27   28 am   BACKBONE|DICT|INTERRES
    55   27   91 1    
    56   28   29 2    
    57   28   30 1    
    58   30   31 1    
    59   30   32 1    
    60   30   92 1    
    61   31   93 1    
    62   31   94 1    
    63   31   95 1    
    64   32   33 am   BACKBONE|DICT|INTERRES
    65   32   96 1    
    66   33   34 2    
    67   33   35 1    
    68   35   36 1    
    69   35   37 1    
    70   35   97 1    
    71   36   98 1    
    72   36   99 1    
    73   36  100 1    
    74   37   38 am   BACKBONE|DICT|INTERRES
    75   37  101 1    
    76   38   39 2    
    77   38   40 1    
    78   40   41 1    
    79   40   42 1    
    80   40  102 1    
    81   41  103 1    
    82   41  104 1    
    83   41  105 1    
    84   42   43 am   BACKBONE|DICT|INTERRES
    85   42  106 1    
    86   43   44 2    
    87   43   45 1    
    88   45   46 1    
    89   45   49 1    
    90   45  107 1    
    91   46   47 1    
    92   46  108 1    
    93   46  109 1    
    94   47   48 1    
    95   48  110 1    
    96   48  111 1    
    97   49   50 am   BACKBONE|DICT|INTERRES
    98   49  112 1    
    99   50   51 2    
   100   50   52 1    
   101   52   53 1    
   102   52   54 1    
   103   52  113 1    
   104   53  114 1    
   105   53  115 1    
   106   53  116 1    
   107   54   55 am   BACKBONE|DICT|INTERRES
   108   54  117 1    
   109   55   56 2    
   110   55   57 1    
   111   57   58 1    
   112   57   59 1    
   113   57  118 1    
   114   58  119 1    
   115   58  120 1    
   116   58  121 1    
   117   59   60 am   BACKBONE|DICT|INTERRES
   118   59  122 1    
   119   60   61 2    
   120   60   62 1    
   121   62   63 1    
   122   62   64 1    
   123   62  123 1    
   124   63  124 1    
   125   63  125 1    
   126   63  126 1    
   127   64   65 am   BACKBONE|DICT|INTERRES
   128   64  127 1    
   129   65   66 2    
@<TRIPOS>SUBSTRUCTURE
     1 UNK         1 GROUP             0       ****    0 ROOT    
