@<TRIPOS>MOLECULE
3R135
127   129    1
SMALL
USER_CHARGES


@<TRIPOS>ATOM
      1 CA        -80.2280   31.2506  -75.3595 C.3       0 UNK        -0.1998 
      2 C         -79.4800   29.9585  -75.0700 C.2       0 UNK         0.4909 
      3 O         -78.2929   29.8585  -75.3766 O.2       0 UNK        -0.5240 
      4 N         -80.1657   28.9713  -74.4784 N.am      1 UNK        -0.4739 
      5 CA        -79.5969   27.6684  -74.1047 C.3       1 UNK         0.0864 
      6 C6        -80.4753   26.9064  -73.0754 C.3       11 UNK        -0.0881 
      7 S7        -80.9805   27.9361  -71.6500 S.3       11 UNK        -0.2682 
      8 C8        -79.7927   27.4488  -70.3531 C.3       11 UNK         0.0289 
      9 C9        -78.3400   27.6632  -70.7617 C.ar      11 UNK        -0.0687 
     10 C10       -77.4226   26.6146  -70.6457 C.ar      11 UNK        -0.0823 
     11 C11       -76.0961   26.7827  -71.0523 C.ar      11 UNK        -0.0830 
     12 C12       -75.6951   28.0059  -71.5958 C.ar      11 UNK        -0.1021 
     13 C13       -76.5995   29.0670  -71.7120 C.ar      11 UNK        -0.0753 
     14 C14       -77.9134   28.8966  -71.2673 C.ar      11 UNK        -0.0933 
     15 C15       -76.1876   30.3640  -72.3961 C.3       11 UNK         0.0166 
     16 S16       -74.6676   31.0872  -71.6956 S.3       11 UNK        -0.2615 
     17 C17       -74.2537   32.3346  -72.9684 C.3       11 UNK        -0.0865 
     18 CA        -73.7080   31.7186  -74.2909 C.3       10 UNK         0.0862 
     19 C         -73.4519   32.7730  -75.4098 C.2       10 UNK         0.5551 
     20 N         -72.5622   32.5126  -76.3606 N.am      10 UNK        -0.7319 
     21 O         -74.0866   33.8247  -75.4391 O.2       10 UNK        -0.5018 
     22 N         -72.6133   30.7602  -74.0708 N.am      10 UNK        -0.4509 
     23 C         -71.3564   31.0361  -73.6982 C.2       10 UNK         0.4899 
     24 O         -70.9410   32.1743  -73.4778 O.2       10 UNK        -0.4839 
     25 CA        -70.3847   29.8481  -73.5362 C.3       9 UNK         0.0222 
     26 CB        -70.0627   29.6221  -72.0495 C.3       9 UNK        -0.1966 
     27 N         -70.8738   28.5898  -74.1089 N.am      9 UNK        -0.4218 
     28 C         -71.0273   28.3284  -75.4146 C.2       9 UNK         0.5020 
     29 O         -70.7064   29.1086  -76.3129 O.2       9 UNK        -0.5274 
     30 CA        -71.6881   26.9845  -75.7844 C.3       8 UNK         0.0270 
     31 CB        -71.6031   25.9172  -74.6696 C.3       8 UNK        -0.1976 
     32 N         -73.0823   27.1597  -76.2082 N.am      8 UNK        -0.4313 
     33 C         -74.0682   27.7734  -75.5390 C.2       8 UNK         0.5041 
     34 O         -73.9224   28.2933  -74.4346 O.2       8 UNK        -0.5577 
     35 CA        -75.4526   27.8299  -76.2045 C.3       7 UNK         0.0284 
     36 CB        -75.4899   28.8609  -77.3482 C.3       7 UNK        -0.1958 
     37 N         -75.9685   26.5229  -76.6256 N.am      7 UNK        -0.4454 
     38 C         -75.5049   25.6806  -77.5593 C.2       7 UNK         0.5089 
     39 O         -74.5414   25.9211  -78.2901 O.2       7 UNK        -0.5125 
     40 CA        -76.2402   24.3287  -77.6528 C.3       6 UNK         0.0408 
     41 CB        -75.5170   23.2992  -78.5464 C.3       6 UNK        -0.1791 
     42 N         -76.5326   23.7760  -76.3226 N.am      6 UNK        -0.4762 
     43 C         -75.6382   23.4218  -75.3844 C.2       6 UNK         0.5007 
     44 O         -74.4217   23.3890  -75.5735 O.2       6 UNK        -0.5032 
     45 CA        -76.1985   23.0308  -74.0002 C.3       5 UNK         0.0783 
     46 C46       -76.3010   24.2466  -73.0456 C.3       11 UNK        -0.0857 
     47 S47       -74.6793   24.8804  -72.5040 S.3       11 UNK        -0.2512 
     48 C48       -75.0960   25.6439  -70.9053 C.3       11 UNK         0.0225 
     49 N         -77.4878   22.3426  -74.1083 N.am      5 UNK        -0.4615 
     50 C         -77.6495   21.0761  -74.5047 C.2       4 UNK         0.5053 
     51 O         -76.7181   20.3429  -74.8372 O.2       4 UNK        -0.5105 
     52 CA        -79.0843   20.5166  -74.5158 C.3       4 UNK         0.0263 
     53 CB        -79.5948   20.2707  -73.0816 C.3       4 UNK        -0.1981 
     54 N         -80.0526   21.2936  -75.3045 N.am      4 UNK        -0.4224 
     55 C         -80.4986   22.5401  -75.0972 C.2       3 UNK         0.4895 
     56 O         -80.1218   23.2736  -74.1796 O.2       3 UNK        -0.5091 
     57 CA        -81.5765   23.0453  -76.0675 C.3       3 UNK         0.0250 
     58 CB        -82.9544   23.0498  -75.3859 C.3       3 UNK        -0.1996 
     59 N         -81.2552   24.3987  -76.5118 N.am      3 UNK        -0.4254 
     60 C         -80.3512   24.6904  -77.4560 C.2       2 UNK         0.5004 
     61 O         -79.7826   23.8438  -78.1450 O.2       2 UNK        -0.5226 
     62 CA        -80.0038   26.1781  -77.6457 C.3       2 UNK         0.0269 
     63 CB        -80.9007   26.8129  -78.7198 C.3       2 UNK        -0.1926 
     64 N         -80.1032   26.9559  -76.4063 N.am      2 UNK        -0.4687 
     65 C         -79.3172   26.7811  -75.3328 C.2       1 UNK         0.5165 
     66 O         -78.3977   25.9639  -75.2963 O.2       1 UNK        -0.5079 
     67 H67       -79.7447   32.0842  -74.8506 H         1 UNK         0.0900 
     68 H68       -81.2650   31.2054  -75.0271 H         1 UNK         0.0900 
     69 H69       -80.2224   31.4547  -76.4298 H         1 UNK         0.0900 
     70 H70       -81.1300   29.1183  -74.2150 H         1 UNK         0.2959 
     71 H71       -78.6235   27.8529  -73.6479 H         1 UNK         0.1079 
     72 H72       -81.3884   26.5408  -73.5493 H         1 UNK         0.0837 
     73 H73       -79.9525   26.0184  -72.7129 H         1 UNK         0.0837 
     74 H74       -79.9946   28.0321  -69.4539 H         1 UNK         0.0685 
     75 H75       -79.9743   26.4051  -70.0917 H         1 UNK         0.0685 
     76 H76       -77.7424   25.6629  -70.2437 H         1 UNK         0.1434 
     77 H77       -74.6788   28.1275  -71.9454 H         1 UNK         0.1329 
     78 H78       -78.6240   29.7057  -71.3668 H         1 UNK         0.1335 
     79 H79       -76.0438   30.1390  -73.4523 H         1 UNK         0.0680 
     80 H80       -76.9863   31.1054  -72.3437 H         1 UNK         0.0680 
     81 H81       -73.5170   33.0199  -72.5460 H         1 UNK         0.1032 
     82 H82       -75.1454   32.9336  -73.1623 H         1 UNK         0.1032 
     83 H83       -74.5088   31.1138  -74.7132 H         1 UNK         0.0461 
     84 H84       -72.4027   33.1896  -77.0897 H         1 UNK         0.3453 
     85 H85       -72.0392   31.6502  -76.3449 H         1 UNK         0.3453 
     86 H86       -72.8852   29.7858  -74.1913 H         1 UNK         0.2984 
     87 H87       -69.4593   30.1136  -74.0511 H         1 UNK         0.0554 
     88 H88       -69.3240   28.8314  -71.9167 H         1 UNK         0.0847 
     89 H89       -70.9538   29.3517  -71.4812 H         1 UNK         0.0847 
     90 H90       -69.6512   30.5254  -71.5968 H         1 UNK         0.0847 
     91 H91       -71.2206   27.9022  -73.4555 H         1 UNK         0.3141 
     92 H92       -71.1454   26.6019  -76.6500 H         1 UNK         0.0743 
     93 H93       -72.1862   26.1883  -73.7889 H         1 UNK         0.0784 
     94 H94       -71.9835   24.9581  -75.0224 H         1 UNK         0.0784 
     95 H95       -70.5718   25.7558  -74.3530 H         1 UNK         0.0784 
     96 H96       -73.3337   26.7575  -77.1089 H         1 UNK         0.3213 
     97 H97       -76.1457   28.1759  -75.4355 H         1 UNK         0.0855 
     98 H98       -75.1736   29.8426  -76.9930 H         1 UNK         0.0814 
     99 H99       -76.5001   28.9720  -77.7423 H         1 UNK         0.0814 
    100 H100      -74.8331   28.5873  -78.1741 H         1 UNK         0.0814 
    101 H101      -76.7664   26.1981  -76.0809 H         1 UNK         0.3105 
    102 H102      -77.2025   24.5393  -78.1175 H         1 UNK         0.0547 
    103 H103      -75.4271   23.6688  -79.5684 H         1 UNK         0.0837 
    104 H104      -74.5085   23.0857  -78.1919 H         1 UNK         0.0837 
    105 H105      -76.0650   22.3581  -78.5894 H         1 UNK         0.0837 
    106 H106      -77.5059   23.7976  -76.0470 H         1 UNK         0.3020 
    107 H107      -75.4900   22.3230  -73.5630 H         1 UNK         0.1245 
    108 H108      -76.8594   23.9579  -72.1537 H         1 UNK         0.0781 
    109 H109      -76.8617   25.0650  -73.4963 H         1 UNK         0.0781 
    110 H110      -74.1812   26.0267  -70.4505 H         1 UNK         0.0836 
    111 H111      -75.4740   24.8775  -70.2270 H         1 UNK         0.0836 
    112 H112      -78.3276   22.8795  -73.9013 H         1 UNK         0.3022 
    113 H113      -79.0292   19.5428  -75.0057 H         1 UNK         0.0747 
    114 H114      -80.5677   19.7792  -73.0872 H         1 UNK         0.0793 
    115 H115      -78.9096   19.6253  -72.5303 H         1 UNK         0.0793 
    116 H116      -79.6923   21.1969  -72.5145 H         1 UNK         0.0793 
    117 H117      -80.4176   20.8038  -76.1103 H         1 UNK         0.3047 
    118 H118      -81.6235   22.3874  -76.9384 H         1 UNK         0.0822 
    119 H119      -83.7329   23.3953  -76.0664 H         1 UNK         0.0807 
    120 H120      -82.9685   23.6932  -74.5048 H         1 UNK         0.0807 
    121 H121      -83.2314   22.0462  -75.0601 H         1 UNK         0.0807 
    122 H122      -81.6391   25.1574  -75.9690 H         1 UNK         0.2946 
    123 H123      -78.9692   26.2311  -77.9908 H         1 UNK         0.1144 
    124 H124      -80.8270   26.2667  -79.6614 H         1 UNK         0.0793 
    125 H125      -80.6088   27.8437  -78.9219 H         1 UNK         0.0793 
    126 H126      -81.9505   26.8118  -78.4236 H         1 UNK         0.0793 
    127 H127      -80.8158   27.6704  -76.3650 H         1 UNK         0.2896 
@<TRIPOS>BOND
     1    1    2 1    
     2    1   67 1    
     3    1   68 1    
     4    1   69 1    
     5    2    3 2    
     6    2    4 am   BACKBONE|DICT|INTERRES
     7    4    5 1    
     8    4   70 1    
     9    5    6 1    
    10    5   65 1    
    11    5   71 1    
    12    6    7 1    
    13    6   72 1    
    14    6   73 1    
    15    7    8 1    
    16    8    9 1    
    17    8   74 1    
    18    8   75 1    
    19    9   10 ar   
    20    9   14 ar   
    21   10   11 ar   
    22   10   76 1    
    23   11   12 ar   
    24   11   48 1    
    25   12   13 ar   
    26   12   77 1    
    27   13   14 ar   
    28   13   15 1    
    29   14   78 1    
    30   15   16 1    
    31   15   79 1    
    32   15   80 1    
    33   16   17 1    
    34   17   18 1    
    35   17   81 1    
    36   17   82 1    
    37   18   19 1    
    38   18   22 1    
    39   18   83 1    
    40   19   20 am   BACKBONE|DICT|INTERRES
    41   19   21 2    
    42   20   84 1    
    43   20   85 1    
    44   22   23 am   BACKBONE|DICT|INTERRES
    45   22   86 1    
    46   23   24 2    
    47   23   25 1    
    48   25   26 1    
    49   25   27 1    
    50   25   87 1    
    51   26   88 1    
    52   26   89 1    
    53   26   90 1    
    54   27   28 am   BACKBONE|DICT|INTERRES
    55   27   91 1    
    56   28   29 2    
    57   28   30 1    
    58   30   31 1    
    59   30   32 1    
    60   30   92 1    
    61   31   93 1    
    62   31   94 1    
    63   31   95 1    
    64   32   33 am   BACKBONE|DICT|INTERRES
    65   32   96 1    
    66   33   34 2    
    67   33   35 1    
    68   35   36 1    
    69   35   37 1    
    70   35   97 1    
    71   36   98 1    
    72   36   99 1    
    73   36  100 1    
    74   37   38 am   BACKBONE|DICT|INTERRES
    75   37  101 1    
    76   38   39 2    
    77   38   40 1    
    78   40   41 1    
    79   40   42 1    
    80   40  102 1    
    81   41  103 1    
    82   41  104 1    
    83   41  105 1    
    84   42   43 am   BACKBONE|DICT|INTERRES
    85   42  106 1    
    86   43   44 2    
    87   43   45 1    
    88   45   46 1    
    89   45   49 1    
    90   45  107 1    
    91   46   47 1    
    92   46  108 1    
    93   46  109 1    
    94   47   48 1    
    95   48  110 1    
    96   48  111 1    
    97   49   50 am   BACKBONE|DICT|INTERRES
    98   49  112 1    
    99   50   51 2    
   100   50   52 1    
   101   52   53 1    
   102   52   54 1    
   103   52  113 1    
   104   53  114 1    
   105   53  115 1    
   106   53  116 1    
   107   54   55 am   BACKBONE|DICT|INTERRES
   108   54  117 1    
   109   55   56 2    
   110   55   57 1    
   111   57   58 1    
   112   57   59 1    
   113   57  118 1    
   114   58  119 1    
   115   58  120 1    
   116   58  121 1    
   117   59   60 am   BACKBONE|DICT|INTERRES
   118   59  122 1    
   119   60   61 2    
   120   60   62 1    
   121   62   63 1    
   122   62   64 1    
   123   62  123 1    
   124   63  124 1    
   125   63  125 1    
   126   63  126 1    
   127   64   65 am   BACKBONE|DICT|INTERRES
   128   64  127 1    
   129   65   66 2    
@<TRIPOS>SUBSTRUCTURE
     1 UNK         1 GROUP             0       ****    0 ROOT    
