@<TRIPOS>MOLECULE
3R135
127   129    1
SMALL
USER_CHARGES


@<TRIPOS>ATOM
      1 CA        -80.6015   25.4067  -70.7943 C.3       0 UNK        -0.1998 
      2 C         -81.4117   25.6742  -72.0543 C.2       0 UNK         0.4909 
      3 O         -82.4438   25.0380  -72.2670 O.2       0 UNK        -0.5240 
      4 N         -80.9519   26.6128  -72.8886 N.am      1 UNK        -0.4739 
      5 CA        -81.5147   26.9119  -74.2075 C.3       1 UNK         0.0864 
      6 C6        -81.2008   28.3707  -74.6400 C.3       11 UNK        -0.0881 
      7 S7        -79.4182   28.7801  -74.6668 S.3       11 UNK        -0.2682 
      8 C8        -79.2409   29.7430  -73.1304 C.3       11 UNK         0.0289 
      9 C9        -77.8328   29.6043  -72.5765 C.ar      11 UNK        -0.0687 
     10 C10       -77.4409   28.3954  -71.9975 C.ar      11 UNK        -0.0823 
     11 C11       -76.1336   28.2096  -71.5461 C.ar      11 UNK        -0.0830 
     12 C12       -75.2287   29.2727  -71.6175 C.ar      11 UNK        -0.1021 
     13 C13       -75.6215   30.5049  -72.1511 C.ar      11 UNK        -0.0753 
     14 C14       -76.9205   30.6618  -72.6461 C.ar      11 UNK        -0.0933 
     15 C15       -74.6355   31.6604  -72.1864 C.3       11 UNK         0.0166 
     16 S16       -73.5840   31.5674  -73.6637 S.3       11 UNK        -0.2615 
     17 C17       -72.0697   32.4174  -73.0909 C.3       11 UNK        -0.0865 
     18 CA        -70.9473   31.4422  -72.6379 C.3       10 UNK         0.0862 
     19 C         -71.1682   30.9192  -71.1876 C.2       10 UNK         0.5551 
     20 N         -71.2985   29.6179  -70.9587 N.am      10 UNK        -0.7319 
     21 O         -71.2126   31.7133  -70.2514 O.2       10 UNK        -0.5018 
     22 N         -70.7211   30.3996  -73.6481 N.am      10 UNK        -0.4509 
     23 C         -69.6054   29.6823  -73.8160 C.2       10 UNK         0.4899 
     24 O         -68.5827   29.8361  -73.1481 O.2       10 UNK        -0.4839 
     25 CA        -69.6374   28.5993  -74.9109 C.3       9 UNK         0.0222 
     26 CB        -69.7707   27.2042  -74.2787 C.3       9 UNK        -0.1966 
     27 N         -70.7200   28.7841  -75.8835 N.am      9 UNK        -0.4218 
     28 C         -70.7616   29.7225  -76.8360 C.2       9 UNK         0.5020 
     29 O         -69.8590   30.5382  -77.0277 O.2       9 UNK        -0.5274 
     30 CA        -72.0182   29.7736  -77.7256 C.3       8 UNK         0.0270 
     31 CB        -71.9534   28.7007  -78.8304 C.3       8 UNK        -0.1976 
     32 N         -73.3065   29.7254  -77.0133 N.am      8 UNK        -0.4313 
     33 C         -73.8396   28.7337  -76.2834 C.2       8 UNK         0.5041 
     34 O         -73.2406   27.6922  -76.0058 O.2       8 UNK        -0.5577 
     35 CA        -75.2775   28.9316  -75.7573 C.3       7 UNK         0.0284 
     36 CB        -75.9731   30.2223  -76.2508 C.3       7 UNK        -0.1958 
     37 N         -76.1217   27.7649  -76.0350 N.am      7 UNK        -0.4454 
     38 C         -76.3966   27.2235  -77.2323 C.2       7 UNK         0.5089 
     39 O         -75.9886   27.6773  -78.3032 O.2       7 UNK        -0.5125 
     40 CA        -77.3183   25.9852  -77.2438 C.3       6 UNK         0.0408 
     41 CB        -77.0000   25.0165  -78.4024 C.3       6 UNK        -0.1791 
     42 N         -77.3866   25.2724  -75.9617 N.am      6 UNK        -0.4762 
     43 C         -76.3985   24.6144  -75.3333 C.2       6 UNK         0.5007 
     44 O         -75.2664   24.4651  -75.7920 O.2       6 UNK        -0.5032 
     45 CA        -76.7501   24.0039  -73.9670 C.3       5 UNK         0.0783 
     46 C46       -76.8583   25.0760  -72.8544 C.3       11 UNK        -0.0857 
     47 S47       -75.2323   25.7015  -72.3093 S.3       11 UNK        -0.2512 
     48 C48       -75.7031   26.8621  -70.9847 C.3       11 UNK         0.0225 
     49 N         -77.9798   23.2207  -74.0868 N.am      5 UNK        -0.4615 
     50 C         -78.2099   22.0663  -73.4524 C.2       4 UNK         0.5053 
     51 O         -77.4249   21.5541  -72.6541 O.2       4 UNK        -0.5105 
     52 CA        -79.5366   21.3522  -73.7614 C.3       4 UNK         0.0263 
     53 CB        -80.6436   21.8390  -72.8150 C.3       4 UNK        -0.1981 
     54 N         -79.9790   21.5262  -75.1462 N.am      4 UNK        -0.4224 
     55 C         -79.3833   21.0036  -76.2252 C.2       3 UNK         0.4895 
     56 O         -78.3860   20.2837  -76.1707 O.2       3 UNK        -0.5091 
     57 CA        -79.9867   21.3392  -77.6035 C.3       3 UNK         0.0250 
     58 CB        -81.1455   20.3831  -77.9489 C.3       3 UNK        -0.1996 
     59 N         -80.3733   22.7484  -77.7831 N.am      3 UNK        -0.4254 
     60 C         -81.3326   23.4441  -77.1560 C.2       2 UNK         0.5004 
     61 O         -82.1024   22.9670  -76.3187 O.2       2 UNK        -0.5226 
     62 CA        -81.4360   24.9342  -77.5225 C.3       2 UNK         0.0269 
     63 CB        -82.4970   25.1434  -78.6148 C.3       2 UNK        -0.1926 
     64 N         -81.7561   25.7873  -76.3729 N.am      2 UNK        -0.4687 
     65 C         -81.0280   25.8834  -75.2511 C.2       1 UNK         0.5165 
     66 O         -79.9926   25.2386  -75.0483 O.2       1 UNK        -0.5079 
     67 H67       -80.1801   24.4024  -70.8270 H         1 UNK         0.0900 
     68 H68       -81.2403   25.4800  -69.9146 H         1 UNK         0.0900 
     69 H69       -79.7823   26.1151  -70.6757 H         1 UNK         0.0900 
     70 H70       -80.0833   27.0824  -72.6890 H         1 UNK         0.2959 
     71 H71       -82.6008   26.8119  -74.1434 H         1 UNK         0.1079 
     72 H72       -81.6083   28.5716  -75.6325 H         1 UNK         0.0837 
     73 H73       -81.7188   29.0657  -73.9774 H         1 UNK         0.0837 
     74 H74       -79.4844   30.7876  -73.3303 H         1 UNK         0.0685 
     75 H75       -79.9524   29.3959  -72.3799 H         1 UNK         0.0685 
     76 H76       -78.1519   27.5876  -71.9228 H         1 UNK         0.1434 
     77 H77       -74.2163   29.1436  -71.2592 H         1 UNK         0.1329 
     78 H78       -77.2189   31.6044  -73.0842 H         1 UNK         0.1335 
     79 H79       -74.0235   31.6372  -71.2840 H         1 UNK         0.0680 
     80 H80       -75.1601   32.6170  -72.1770 H         1 UNK         0.0680 
     81 H81       -72.3121   33.1425  -72.3113 H         1 UNK         0.1032 
     82 H82       -71.7013   33.0133  -73.9273 H         1 UNK         0.1032 
     83 H83       -70.0285   32.0294  -72.5841 H         1 UNK         0.0461 
     84 H84       -71.4281   29.2929  -70.0140 H         1 UNK         0.3453 
     85 H85       -71.2522   28.9610  -71.7197 H         1 UNK         0.3453 
     86 H86       -71.5170   30.1925  -74.2333 H         1 UNK         0.2984 
     87 H87       -68.6861   28.6447  -75.4449 H         1 UNK         0.0554 
     88 H88       -69.7079   26.4200  -75.0334 H         1 UNK         0.0847 
     89 H89       -70.7197   27.0871  -73.7536 H         1 UNK         0.0847 
     90 H90       -68.9725   27.0217  -73.5576 H         1 UNK         0.0847 
     91 H91       -71.5360   28.1741  -75.8097 H         1 UNK         0.3141 
     92 H92       -72.0014   30.7456  -78.2216 H         1 UNK         0.0743 
     93 H93       -71.9712   27.6904  -78.4203 H         1 UNK         0.0784 
     94 H94       -72.7915   28.7938  -79.5213 H         1 UNK         0.0784 
     95 H95       -71.0377   28.7974  -79.4152 H         1 UNK         0.0784 
     96 H96       -73.8820   30.5474  -77.1348 H         1 UNK         0.3213 
     97 H97       -75.1944   28.9940  -74.6714 H         1 UNK         0.0855 
     98 H98       -75.4269   31.1158  -75.9490 H         1 UNK         0.0814 
     99 H99       -76.9711   30.3105  -75.8216 H         1 UNK         0.0814 
    100 H100      -76.0809   30.2444  -77.3358 H         1 UNK         0.0814 
    101 H101      -76.4927   27.2950  -75.2227 H         1 UNK         0.3105 
    102 H102      -78.3231   26.3747  -77.4115 H         1 UNK         0.0547 
    103 H103      -77.1445   25.5017  -79.3683 H         1 UNK         0.0837 
    104 H104      -75.9661   24.6719  -78.3674 H         1 UNK         0.0837 
    105 H105      -77.6454   24.1396  -78.3801 H         1 UNK         0.0837 
    106 H106      -78.2956   25.3304  -75.5018 H         1 UNK         0.3020 
    107 H107      -75.9324   23.3240  -73.7136 H         1 UNK         0.1245 
    108 H108      -77.3510   24.6510  -71.9783 H         1 UNK         0.0781 
    109 H109      -77.4881   25.9006  -73.1857 H         1 UNK         0.0781 
    110 H110      -74.8493   26.9936  -70.3181 H         1 UNK         0.0836 
    111 H111      -76.4982   26.4311  -70.3743 H         1 UNK         0.0836 
    112 H112      -78.6942   23.5917  -74.7019 H         1 UNK         0.3022 
    113 H113      -79.3833   20.2848  -73.5884 H         1 UNK         0.0747 
    114 H114      -81.5572   21.2579  -72.9415 H         1 UNK         0.0793 
    115 H115      -80.3407   21.7450  -71.7712 H         1 UNK         0.0793 
    116 H116      -80.8874   22.8858  -72.9950 H         1 UNK         0.0793 
    117 H117      -80.8099   22.0925  -75.3060 H         1 UNK         0.3047 
    118 H118      -79.1953   21.1619  -78.3339 H         1 UNK         0.0822 
    119 H119      -81.5266   20.5687  -78.9531 H         1 UNK         0.0807 
    120 H120      -81.9784   20.4777  -77.2516 H         1 UNK         0.0807 
    121 H121      -80.8143   19.3443  -77.9152 H         1 UNK         0.0807 
    122 H122      -79.8057   23.2472  -78.4538 H         1 UNK         0.2946 
    123 H123      -80.4701   25.2643  -77.9098 H         1 UNK         0.1144 
    124 H124      -82.2746   24.5430  -79.4982 H         1 UNK         0.0793 
    125 H125      -82.5386   26.1844  -78.9361 H         1 UNK         0.0793 
    126 H126      -83.4915   24.8573  -78.2695 H         1 UNK         0.0793 
    127 H127      -82.5996   26.3366  -76.4509 H         1 UNK         0.2896 
@<TRIPOS>BOND
     1    1    2 1    
     2    1   67 1    
     3    1   68 1    
     4    1   69 1    
     5    2    3 2    
     6    2    4 am   BACKBONE|DICT|INTERRES
     7    4    5 1    
     8    4   70 1    
     9    5    6 1    
    10    5   65 1    
    11    5   71 1    
    12    6    7 1    
    13    6   72 1    
    14    6   73 1    
    15    7    8 1    
    16    8    9 1    
    17    8   74 1    
    18    8   75 1    
    19    9   10 ar   
    20    9   14 ar   
    21   10   11 ar   
    22   10   76 1    
    23   11   12 ar   
    24   11   48 1    
    25   12   13 ar   
    26   12   77 1    
    27   13   14 ar   
    28   13   15 1    
    29   14   78 1    
    30   15   16 1    
    31   15   79 1    
    32   15   80 1    
    33   16   17 1    
    34   17   18 1    
    35   17   81 1    
    36   17   82 1    
    37   18   19 1    
    38   18   22 1    
    39   18   83 1    
    40   19   20 am   BACKBONE|DICT|INTERRES
    41   19   21 2    
    42   20   84 1    
    43   20   85 1    
    44   22   23 am   BACKBONE|DICT|INTERRES
    45   22   86 1    
    46   23   24 2    
    47   23   25 1    
    48   25   26 1    
    49   25   27 1    
    50   25   87 1    
    51   26   88 1    
    52   26   89 1    
    53   26   90 1    
    54   27   28 am   BACKBONE|DICT|INTERRES
    55   27   91 1    
    56   28   29 2    
    57   28   30 1    
    58   30   31 1    
    59   30   32 1    
    60   30   92 1    
    61   31   93 1    
    62   31   94 1    
    63   31   95 1    
    64   32   33 am   BACKBONE|DICT|INTERRES
    65   32   96 1    
    66   33   34 2    
    67   33   35 1    
    68   35   36 1    
    69   35   37 1    
    70   35   97 1    
    71   36   98 1    
    72   36   99 1    
    73   36  100 1    
    74   37   38 am   BACKBONE|DICT|INTERRES
    75   37  101 1    
    76   38   39 2    
    77   38   40 1    
    78   40   41 1    
    79   40   42 1    
    80   40  102 1    
    81   41  103 1    
    82   41  104 1    
    83   41  105 1    
    84   42   43 am   BACKBONE|DICT|INTERRES
    85   42  106 1    
    86   43   44 2    
    87   43   45 1    
    88   45   46 1    
    89   45   49 1    
    90   45  107 1    
    91   46   47 1    
    92   46  108 1    
    93   46  109 1    
    94   47   48 1    
    95   48  110 1    
    96   48  111 1    
    97   49   50 am   BACKBONE|DICT|INTERRES
    98   49  112 1    
    99   50   51 2    
   100   50   52 1    
   101   52   53 1    
   102   52   54 1    
   103   52  113 1    
   104   53  114 1    
   105   53  115 1    
   106   53  116 1    
   107   54   55 am   BACKBONE|DICT|INTERRES
   108   54  117 1    
   109   55   56 2    
   110   55   57 1    
   111   57   58 1    
   112   57   59 1    
   113   57  118 1    
   114   58  119 1    
   115   58  120 1    
   116   58  121 1    
   117   59   60 am   BACKBONE|DICT|INTERRES
   118   59  122 1    
   119   60   61 2    
   120   60   62 1    
   121   62   63 1    
   122   62   64 1    
   123   62  123 1    
   124   63  124 1    
   125   63  125 1    
   126   63  126 1    
   127   64   65 am   BACKBONE|DICT|INTERRES
   128   64  127 1    
   129   65   66 2    
@<TRIPOS>SUBSTRUCTURE
     1 UNK         1 GROUP             0       ****    0 ROOT    
