@<TRIPOS>MOLECULE
3R135
127   129    1
SMALL
USER_CHARGES


@<TRIPOS>ATOM
      1 CA        -84.5608   24.9709  -70.7765 C.3       0 UNK        -0.1998 
      2 C         -84.0789   25.8952  -71.8844 C.2       0 UNK         0.4909 
      3 O         -84.3500   25.6378  -73.0580 O.2       0 UNK        -0.5240 
      4 N         -83.3734   26.9736  -71.5217 N.am      1 UNK        -0.4739 
      5 CA        -82.7438   27.9146  -72.4532 C.3       1 UNK         0.0864 
      6 C6        -82.3668   29.2534  -71.7644 C.3       11 UNK        -0.0881 
      7 S7        -81.3807   29.0698  -70.2348 S.3       11 UNK        -0.2682 
      8 C8        -79.9775   30.1929  -70.5402 C.3       11 UNK         0.0289 
      9 C9        -78.9926   29.6604  -71.5746 C.ar      11 UNK        -0.0687 
     10 C10       -78.3475   28.4366  -71.3696 C.ar      11 UNK        -0.0823 
     11 C11       -77.4083   27.9681  -72.2909 C.ar      11 UNK        -0.0830 
     12 C12       -77.1169   28.7292  -73.4249 C.ar      11 UNK        -0.1021 
     13 C13       -77.7297   29.9696  -73.6324 C.ar      11 UNK        -0.0753 
     14 C14       -78.6792   30.4194  -72.7078 C.ar      11 UNK        -0.0933 
     15 C15       -77.3947   30.8372  -74.8457 C.3       11 UNK         0.0166 
     16 S16       -75.6641   30.7257  -75.4201 S.3       11 UNK        -0.2615 
     17 C17       -74.7369   31.5420  -74.0733 C.3       11 UNK        -0.0865 
     18 CA        -73.4475   30.7890  -73.6373 C.3       10 UNK         0.0862 
     19 C         -73.7279   29.6306  -72.6359 C.2       10 UNK         0.5551 
     20 N         -73.3680   28.3884  -72.9378 N.am      10 UNK        -0.7319 
     21 O         -74.2473   29.8724  -71.5498 O.2       10 UNK        -0.5018 
     22 N         -72.6121   30.4089  -74.7896 N.am      10 UNK        -0.4509 
     23 C         -71.2788   30.3031  -74.7691 C.2       10 UNK         0.4899 
     24 O         -70.5780   30.5943  -73.7986 O.2       10 UNK        -0.4839 
     25 CA        -70.6395   29.7563  -76.0548 C.3       9 UNK         0.0222 
     26 CB        -69.2540   30.3701  -76.3499 C.3       9 UNK        -0.1966 
     27 N         -70.6078   28.2890  -76.0355 N.am      9 UNK        -0.4218 
     28 C         -69.8598   27.4771  -75.2670 C.2       9 UNK         0.5020 
     29 O         -68.9951   27.8741  -74.4853 O.2       9 UNK        -0.5274 
     30 CA        -70.1058   25.9553  -75.3643 C.3       8 UNK         0.0270 
     31 CB        -70.4141   25.3614  -73.9780 C.3       8 UNK        -0.1976 
     32 N         -71.1871   25.5942  -76.2849 N.am      8 UNK        -0.4313 
     33 C         -71.0564   25.4843  -77.6161 C.2       8 UNK         0.5041 
     34 O         -69.9793   25.5903  -78.2033 O.2       8 UNK        -0.5577 
     35 CA        -72.3384   25.2568  -78.4444 C.3       7 UNK         0.0284 
     36 CB        -72.4727   23.7744  -78.8266 C.3       7 UNK        -0.1958 
     37 N         -73.5677   25.6946  -77.7742 N.am      7 UNK        -0.4454 
     38 C         -73.8204   26.9503  -77.3719 C.2       7 UNK         0.5089 
     39 O         -73.0756   27.9022  -77.6061 O.2       7 UNK        -0.5125 
     40 CA        -75.0615   27.1816  -76.4922 C.3       6 UNK         0.0408 
     41 CB        -76.2085   27.7759  -77.3206 C.3       6 UNK        -0.1791 
     42 N         -75.5440   25.9898  -75.7904 N.am      6 UNK        -0.4762 
     43 C         -74.8356   25.2286  -74.9421 C.2       6 UNK         0.5007 
     44 O         -73.6785   25.4840  -74.6080 O.2       6 UNK        -0.5032 
     45 CA        -75.5106   23.9369  -74.4283 C.3       5 UNK         0.0783 
     46 C46       -76.0534   24.1048  -72.9867 C.3       11 UNK        -0.0857 
     47 S47       -77.4670   25.2615  -72.8686 S.3       11 UNK        -0.2512 
     48 C48       -76.6639   26.6676  -72.0442 C.3       11 UNK         0.0225 
     49 N         -76.5515   23.4095  -75.3182 N.am      5 UNK        -0.4615 
     50 C         -76.4374   23.0817  -76.6104 C.2       4 UNK         0.5053 
     51 O         -75.3900   23.1966  -77.2476 O.2       4 UNK        -0.5105 
     52 CA        -77.7084   22.5960  -77.3361 C.3       4 UNK         0.0263 
     53 CB        -77.6840   21.0670  -77.5267 C.3       4 UNK        -0.1981 
     54 N         -78.9797   23.0466  -76.7397 N.am      4 UNK        -0.4224 
     55 C         -79.5340   22.7092  -75.5655 C.2       3 UNK         0.4895 
     56 O         -79.0142   21.9365  -74.7597 O.2       3 UNK        -0.5091 
     57 CA        -80.8544   23.4164  -75.2101 C.3       3 UNK         0.0250 
     58 CB        -81.5573   22.7836  -73.9947 C.3       3 UNK        -0.1996 
     59 N         -80.6350   24.8360  -74.9319 N.am      3 UNK        -0.4254 
     60 C         -80.4245   25.7950  -75.8397 C.2       2 UNK         0.5004 
     61 O         -80.3880   25.5709  -77.0520 O.2       2 UNK        -0.5226 
     62 CA        -80.2302   27.2327  -75.3087 C.3       2 UNK         0.0269 
     63 CB        -80.0978   28.2565  -76.4519 C.3       2 UNK        -0.1926 
     64 N         -81.3141   27.6811  -74.4278 N.am      2 UNK        -0.4687 
     65 C         -81.5416   27.2689  -73.1735 C.2       1 UNK         0.5165 
     66 O         -80.8579   26.4183  -72.5982 O.2       1 UNK        -0.5079 
     67 H67       -85.6478   24.8975  -70.7945 H         1 UNK         0.0900 
     68 H68       -84.2608   25.3260  -69.7906 H         1 UNK         0.0900 
     69 H69       -84.1485   23.9721  -70.9172 H         1 UNK         0.0900 
     70 H70       -83.1439   27.1218  -70.5490 H         1 UNK         0.2959 
     71 H71       -83.4877   28.1452  -73.2196 H         1 UNK         0.1079 
     72 H72       -81.8484   29.9111  -72.4650 H         1 UNK         0.0837 
     73 H73       -83.2810   29.7848  -71.4959 H         1 UNK         0.0837 
     74 H74       -80.3617   31.1723  -70.8296 H         1 UNK         0.0685 
     75 H75       -79.4435   30.3418  -69.6008 H         1 UNK         0.0685 
     76 H76       -78.5745   27.8524  -70.4883 H         1 UNK         0.1434 
     77 H77       -76.3879   28.3599  -74.1301 H         1 UNK         0.1329 
     78 H78       -79.1629   31.3743  -72.8618 H         1 UNK         0.1335 
     79 H79       -77.6187   31.8845  -74.6370 H         1 UNK         0.0680 
     80 H80       -78.0422   30.5442  -75.6710 H         1 UNK         0.0680 
     81 H81       -74.4636   32.5363  -74.4291 H         1 UNK         0.1032 
     82 H82       -75.3937   31.7146  -73.2182 H         1 UNK         0.1032 
     83 H83       -72.8723   31.5106  -73.0537 H         1 UNK         0.0461 
     84 H84       -73.5230   27.6546  -72.2671 H         1 UNK         0.3453 
     85 H85       -72.9296   28.1814  -73.8189 H         1 UNK         0.3453 
     86 H86       -73.1192   30.1474  -75.6238 H         1 UNK         0.2984 
     87 H87       -71.2890   30.0310  -76.8878 H         1 UNK         0.0554 
     88 H88       -68.8306   29.9684  -77.2703 H         1 UNK         0.0847 
     89 H89       -68.5393   30.1912  -75.5465 H         1 UNK         0.0847 
     90 H90       -69.3311   31.4509  -76.4722 H         1 UNK         0.0847 
     91 H91       -71.3055   27.8569  -76.6330 H         1 UNK         0.3141 
     92 H92       -69.1778   25.5036  -75.7213 H         1 UNK         0.0743 
     93 H93       -69.5728   25.4993  -73.2975 H         1 UNK         0.0784 
     94 H94       -71.2815   25.8364  -73.5186 H         1 UNK         0.0784 
     95 H95       -70.6085   24.2903  -74.0363 H         1 UNK         0.0784 
     96 H96       -72.1093   25.4949  -75.8691 H         1 UNK         0.3213 
     97 H97       -72.2389   25.8413  -79.3615 H         1 UNK         0.0855 
     98 H98       -73.3312   23.6077  -79.4775 H         1 UNK         0.0814 
     99 H99       -72.5931   23.1412  -77.9465 H         1 UNK         0.0814 
    100 H100      -71.5881   23.4261  -79.3617 H         1 UNK         0.0814 
    101 H101      -74.2336   24.9673  -77.5341 H         1 UNK         0.3105 
    102 H102      -74.7695   27.9070  -75.7320 H         1 UNK         0.0547 
    103 H103      -77.0224   28.1016  -76.6748 H         1 UNK         0.0837 
    104 H104      -75.8762   28.6525  -77.8788 H         1 UNK         0.0837 
    105 H105      -76.6065   27.0600  -78.0405 H         1 UNK         0.0837 
    106 H106      -76.4838   25.6890  -76.0017 H         1 UNK         0.3020 
    107 H107      -74.7215   23.1824  -74.3999 H         1 UNK         0.1245 
    108 H108      -75.2546   24.4109  -72.3082 H         1 UNK         0.0781 
    109 H109      -76.3902   23.1368  -72.6122 H         1 UNK         0.0781 
    110 H110      -76.5897   26.4645  -70.9748 H         1 UNK         0.0836 
    111 H111      -75.6411   26.7716  -72.4067 H         1 UNK         0.0836 
    112 H112      -77.4444   23.2186  -74.8779 H         1 UNK         0.3022 
    113 H113      -77.6782   23.0486  -78.3286 H         1 UNK         0.0747 
    114 H114      -76.7931   20.7590  -78.0758 H         1 UNK         0.0793 
    115 H115      -78.5488   20.7240  -78.0946 H         1 UNK         0.0793 
    116 H116      -77.6744   20.5357  -76.5747 H         1 UNK         0.0793 
    117 H117      -79.4616   23.7765  -77.2579 H         1 UNK         0.3047 
    118 H118      -81.5224   23.3232  -76.0692 H         1 UNK         0.0822 
    119 H119      -81.7462   21.7221  -74.1602 H         1 UNK         0.0807 
    120 H120      -82.5199   23.2589  -73.8031 H         1 UNK         0.0807 
    121 H121      -80.9559   22.8728  -73.0888 H         1 UNK         0.0807 
    122 H122      -80.6337   25.1195  -73.9545 H         1 UNK         0.2946 
    123 H123      -79.2999   27.2372  -74.7354 H         1 UNK         0.1144 
    124 H124      -79.9081   29.2575  -76.0674 H         1 UNK         0.0793 
    125 H125      -81.0038   28.2999  -77.0576 H         1 UNK         0.0793 
    126 H126      -79.2774   28.0015  -77.1221 H         1 UNK         0.0793 
    127 H127      -81.9452   28.3596  -74.8290 H         1 UNK         0.2896 
@<TRIPOS>BOND
     1    1    2 1    
     2    1   67 1    
     3    1   68 1    
     4    1   69 1    
     5    2    3 2    
     6    2    4 am   BACKBONE|DICT|INTERRES
     7    4    5 1    
     8    4   70 1    
     9    5    6 1    
    10    5   65 1    
    11    5   71 1    
    12    6    7 1    
    13    6   72 1    
    14    6   73 1    
    15    7    8 1    
    16    8    9 1    
    17    8   74 1    
    18    8   75 1    
    19    9   10 ar   
    20    9   14 ar   
    21   10   11 ar   
    22   10   76 1    
    23   11   12 ar   
    24   11   48 1    
    25   12   13 ar   
    26   12   77 1    
    27   13   14 ar   
    28   13   15 1    
    29   14   78 1    
    30   15   16 1    
    31   15   79 1    
    32   15   80 1    
    33   16   17 1    
    34   17   18 1    
    35   17   81 1    
    36   17   82 1    
    37   18   19 1    
    38   18   22 1    
    39   18   83 1    
    40   19   20 am   BACKBONE|DICT|INTERRES
    41   19   21 2    
    42   20   84 1    
    43   20   85 1    
    44   22   23 am   BACKBONE|DICT|INTERRES
    45   22   86 1    
    46   23   24 2    
    47   23   25 1    
    48   25   26 1    
    49   25   27 1    
    50   25   87 1    
    51   26   88 1    
    52   26   89 1    
    53   26   90 1    
    54   27   28 am   BACKBONE|DICT|INTERRES
    55   27   91 1    
    56   28   29 2    
    57   28   30 1    
    58   30   31 1    
    59   30   32 1    
    60   30   92 1    
    61   31   93 1    
    62   31   94 1    
    63   31   95 1    
    64   32   33 am   BACKBONE|DICT|INTERRES
    65   32   96 1    
    66   33   34 2    
    67   33   35 1    
    68   35   36 1    
    69   35   37 1    
    70   35   97 1    
    71   36   98 1    
    72   36   99 1    
    73   36  100 1    
    74   37   38 am   BACKBONE|DICT|INTERRES
    75   37  101 1    
    76   38   39 2    
    77   38   40 1    
    78   40   41 1    
    79   40   42 1    
    80   40  102 1    
    81   41  103 1    
    82   41  104 1    
    83   41  105 1    
    84   42   43 am   BACKBONE|DICT|INTERRES
    85   42  106 1    
    86   43   44 2    
    87   43   45 1    
    88   45   46 1    
    89   45   49 1    
    90   45  107 1    
    91   46   47 1    
    92   46  108 1    
    93   46  109 1    
    94   47   48 1    
    95   48  110 1    
    96   48  111 1    
    97   49   50 am   BACKBONE|DICT|INTERRES
    98   49  112 1    
    99   50   51 2    
   100   50   52 1    
   101   52   53 1    
   102   52   54 1    
   103   52  113 1    
   104   53  114 1    
   105   53  115 1    
   106   53  116 1    
   107   54   55 am   BACKBONE|DICT|INTERRES
   108   54  117 1    
   109   55   56 2    
   110   55   57 1    
   111   57   58 1    
   112   57   59 1    
   113   57  118 1    
   114   58  119 1    
   115   58  120 1    
   116   58  121 1    
   117   59   60 am   BACKBONE|DICT|INTERRES
   118   59  122 1    
   119   60   61 2    
   120   60   62 1    
   121   62   63 1    
   122   62   64 1    
   123   62  123 1    
   124   63  124 1    
   125   63  125 1    
   126   63  126 1    
   127   64   65 am   BACKBONE|DICT|INTERRES
   128   64  127 1    
   129   65   66 2    
@<TRIPOS>SUBSTRUCTURE
     1 UNK         1 GROUP             0       ****    0 ROOT    
