@<TRIPOS>MOLECULE
3R135
127   129    1
SMALL
USER_CHARGES


@<TRIPOS>ATOM
      1 CA        -85.4098   29.8317  -74.6980 C.3       0 UNK        -0.1998 
      2 C         -84.0563   29.1540  -74.8517 C.2       0 UNK         0.4909 
      3 O         -83.6450   28.8550  -75.9738 O.2       0 UNK        -0.5240 
      4 N         -83.3574   28.9189  -73.7345 N.am      1 UNK        -0.4739 
      5 CA        -82.0586   28.2367  -73.6861 C.3       1 UNK         0.0864 
      6 C6        -81.3422   28.4523  -72.3299 C.3       11 UNK        -0.0881 
      7 S7        -81.0874   30.2168  -71.9340 S.3       11 UNK        -0.2682 
      8 C8        -80.3387   30.1124  -70.2763 C.3       11 UNK         0.0289 
      9 C9        -78.8920   29.6483  -70.3480 C.ar      11 UNK        -0.0687 
     10 C10       -78.5845   28.2879  -70.2507 C.ar      11 UNK        -0.0823 
     11 C11       -77.2652   27.8482  -70.3877 C.ar      11 UNK        -0.0830 
     12 C12       -76.2441   28.7842  -70.5633 C.ar      11 UNK        -0.1021 
     13 C13       -76.5356   30.1478  -70.6421 C.ar      11 UNK        -0.0753 
     14 C14       -77.8623   30.5764  -70.5380 C.ar      11 UNK        -0.0933 
     15 C15       -75.4082   31.1425  -70.8581 C.3       11 UNK         0.0166 
     16 S16       -74.8878   31.1628  -72.6030 S.3       11 UNK        -0.2615 
     17 C17       -73.0888   31.4473  -72.4378 C.3       11 UNK        -0.0865 
     18 CA        -72.2194   30.1789  -72.6774 C.3       10 UNK         0.0862 
     19 C         -72.4036   29.0759  -71.6011 C.2       10 UNK         0.5551 
     20 N         -72.0493   29.3612  -70.3556 N.am      10 UNK        -0.7319 
     21 O         -72.8631   27.9689  -71.8780 O.2       10 UNK        -0.5018 
     22 N         -72.3836   29.6293  -74.0257 N.am      10 UNK        -0.4509 
     23 C         -71.8048   30.0993  -75.1342 C.2       10 UNK         0.4899 
     24 O         -71.1028   31.1118  -75.1642 O.2       10 UNK        -0.4839 
     25 CA        -72.0509   29.2879  -76.4197 C.3       9 UNK         0.0222 
     26 CB        -71.1068   29.6736  -77.5779 C.3       9 UNK        -0.1966 
     27 N         -72.0289   27.8412  -76.1799 N.am      9 UNK        -0.4218 
     28 C         -71.0062   27.0891  -75.7446 C.2       9 UNK         0.5020 
     29 O         -69.8803   27.5226  -75.4957 O.2       9 UNK        -0.5274 
     30 CA        -71.2890   25.5875  -75.5506 C.3       8 UNK         0.0270 
     31 CB        -71.7262   25.3081  -74.1034 C.3       8 UNK        -0.1976 
     32 N         -72.3007   25.0676  -76.4765 N.am      8 UNK        -0.4313 
     33 C         -72.1279   24.9539  -77.8018 C.2       8 UNK         0.5041 
     34 O         -71.0621   25.1812  -78.3762 O.2       8 UNK        -0.5577 
     35 CA        -73.3545   24.5426  -78.6331 C.3       7 UNK         0.0284 
     36 CB        -73.5416   23.0171  -78.6110 C.3       7 UNK        -0.1958 
     37 N         -74.5863   25.2050  -78.1935 N.am      7 UNK        -0.4454 
     38 C         -74.8195   26.5228  -78.2884 C.2       7 UNK         0.5089 
     39 O         -74.0434   27.3207  -78.8132 O.2       7 UNK        -0.5125 
     40 CA        -76.1220   27.0508  -77.6618 C.3       6 UNK         0.0408 
     41 CB        -77.3082   26.8577  -78.6188 C.3       6 UNK        -0.1791 
     42 N         -76.4243   26.4309  -76.3703 N.am      6 UNK        -0.4762 
     43 C         -75.6715   26.5524  -75.2661 C.2       6 UNK         0.5007 
     44 O         -74.6582   27.2481  -75.2015 O.2       6 UNK        -0.5032 
     45 CA        -76.0966   25.7133  -74.0465 C.3       5 UNK         0.0783 
     46 C46       -77.2132   26.4305  -73.2534 C.3       11 UNK        -0.0857 
     47 S47       -77.7635   25.4928  -71.7829 S.3       11 UNK        -0.2512 
     48 C48       -76.9420   26.3612  -70.4045 C.3       11 UNK         0.0225 
     49 N         -76.4785   24.3577  -74.4502 N.am      5 UNK        -0.4615 
     50 C         -75.6370   23.4437  -74.9486 C.2       4 UNK         0.5053 
     51 O         -74.4319   23.6355  -75.1073 O.2       4 UNK        -0.5105 
     52 CA        -76.2573   22.1054  -75.3818 C.3       4 UNK         0.0263 
     53 CB        -76.4414   21.1772  -74.1708 C.3       4 UNK        -0.1981 
     54 N         -77.5396   22.2787  -76.0704 N.am      4 UNK        -0.4224 
     55 C         -77.6822   22.8869  -77.2571 C.2       3 UNK         0.4895 
     56 O         -76.7427   23.3259  -77.9182 O.2       3 UNK        -0.5091 
     57 CA        -79.1172   23.0793  -77.7747 C.3       3 UNK         0.0250 
     58 CB        -79.5948   21.8244  -78.5227 C.3       3 UNK        -0.1996 
     59 N         -80.0801   23.4256  -76.7232 N.am      3 UNK        -0.4254 
     60 C         -80.0125   24.5266  -75.9625 C.2       2 UNK         0.5004 
     61 O         -79.1061   25.3616  -76.0366 O.2       2 UNK        -0.5226 
     62 CA        -81.1197   24.7056  -74.9198 C.3       2 UNK         0.0269 
     63 CB        -80.8596   23.8185  -73.6874 C.3       2 UNK        -0.1926 
     64 N         -81.1671   26.1133  -74.5317 N.am      2 UNK        -0.4687 
     65 C         -82.2157   26.7280  -73.9753 C.2       1 UNK         0.5165 
     66 O         -83.2603   26.1462  -73.6675 O.2       1 UNK        -0.5079 
     67 H67       -85.6398   30.0509  -73.6554 H         1 UNK         0.0900 
     68 H68       -85.4254   30.7694  -75.2528 H         1 UNK         0.0900 
     69 H69       -86.1974   29.1892  -75.0911 H         1 UNK         0.0900 
     70 H70       -83.7448   29.1786  -72.8389 H         1 UNK         0.2959 
     71 H71       -81.4328   28.6635  -74.4736 H         1 UNK         0.1079 
     72 H72       -80.3662   27.9643  -72.3484 H         1 UNK         0.0837 
     73 H73       -81.9062   27.9893  -71.5175 H         1 UNK         0.0837 
     74 H74       -80.3866   31.0958  -69.8062 H         1 UNK         0.0685 
     75 H75       -80.9274   29.4446  -69.6454 H         1 UNK         0.0685 
     76 H76       -79.3767   27.5638  -70.1171 H         1 UNK         0.1434 
     77 H77       -75.2210   28.4516  -70.6720 H         1 UNK         0.1329 
     78 H78       -78.0963   31.6291  -70.6198 H         1 UNK         0.1335 
     79 H79       -74.5726   30.8695  -70.2125 H         1 UNK         0.0680 
     80 H80       -75.7114   32.1476  -70.5610 H         1 UNK         0.0680 
     81 H81       -72.8105   32.2146  -73.1616 H         1 UNK         0.1032 
     82 H82       -72.8667   31.8887  -71.4653 H         1 UNK         0.1032 
     83 H83       -71.1729   30.4786  -72.5907 H         1 UNK         0.0461 
     84 H84       -71.6523   30.2552  -70.1133 H         1 UNK         0.3453 
     85 H85       -72.1579   28.6546  -69.6453 H         1 UNK         0.3453 
     86 H86       -72.9342   28.7798  -74.0702 H         1 UNK         0.2984 
     87 H87       -73.0689   29.5214  -76.7351 H         1 UNK         0.0554 
     88 H88       -71.2232   30.7250  -77.8432 H         1 UNK         0.0847 
     89 H89       -71.3214   29.0883  -78.4724 H         1 UNK         0.0847 
     90 H90       -70.0594   29.5183  -77.3176 H         1 UNK         0.0847 
     91 H91       -72.9338   27.3875  -76.2525 H         1 UNK         0.3141 
     92 H92       -70.3568   25.0495  -75.7353 H         1 UNK         0.0743 
     93 H93       -72.6657   25.8064  -73.8619 H         1 UNK         0.0784 
     94 H94       -71.8591   24.2405  -73.9275 H         1 UNK         0.0784 
     95 H95       -70.9790   25.6646  -73.3930 H         1 UNK         0.0784 
     96 H96       -73.1845   24.7692  -76.0705 H         1 UNK         0.3213 
     97 H97       -73.1680   24.8447  -79.6660 H         1 UNK         0.0855 
     98 H98       -73.7640   22.6507  -77.6086 H         1 UNK         0.0814 
     99 H99       -72.6392   22.5082  -78.9523 H         1 UNK         0.0814 
    100 H100      -74.3553   22.7085  -79.2675 H         1 UNK         0.0814 
    101 H101      -75.3204   24.6059  -77.8236 H         1 UNK         0.3105 
    102 H102      -75.9975   28.1220  -77.4902 H         1 UNK         0.0547 
    103 H103      -77.1262   27.3584  -79.5705 H         1 UNK         0.0837 
    104 H104      -77.4872   25.8044  -78.8341 H         1 UNK         0.0837 
    105 H105      -78.2259   27.2736  -78.2026 H         1 UNK         0.0837 
    106 H106      -77.2745   25.8742  -76.3172 H         1 UNK         0.3020 
    107 H107      -75.2225   25.6306  -73.3961 H         1 UNK         0.1245 
    108 H108      -78.0898   26.5880  -73.8832 H         1 UNK         0.0781 
    109 H109      -76.8816   27.4276  -72.9627 H         1 UNK         0.0781 
    110 H110      -75.8658   26.1959  -70.4780 H         1 UNK         0.0836 
    111 H111      -77.2591   25.9137  -69.4617 H         1 UNK         0.0836 
    112 H112      -77.4589   24.1332  -74.3769 H         1 UNK         0.3022 
    113 H113      -75.5636   21.6275  -76.0768 H         1 UNK         0.0747 
    114 H114      -76.8072   20.1963  -74.4749 H         1 UNK         0.0793 
    115 H115      -75.4937   21.0214  -73.6531 H         1 UNK         0.0793 
    116 H116      -77.1446   21.5890  -73.4456 H         1 UNK         0.0793 
    117 H117      -78.3664   21.9427  -75.5988 H         1 UNK         0.3047 
    118 H118      -79.0970   23.9089  -78.4845 H         1 UNK         0.0822 
    119 H119      -80.5696   21.9841  -78.9840 H         1 UNK         0.0807 
    120 H120      -79.6732   20.9614  -77.8603 H         1 UNK         0.0807 
    121 H121      -78.9007   21.5596  -79.3219 H         1 UNK         0.0807 
    122 H122      -80.8527   22.7882  -76.5918 H         1 UNK         0.2946 
    123 H123      -82.0726   24.4313  -75.3786 H         1 UNK         0.1144 
    124 H124      -81.6425   23.9356  -72.9380 H         1 UNK         0.0793 
    125 H125      -79.9082   24.0579  -73.2134 H         1 UNK         0.0793 
    126 H126      -80.8331   22.7625  -73.9585 H         1 UNK         0.0793 
    127 H127      -80.3440   26.6383  -74.8013 H         1 UNK         0.2896 
@<TRIPOS>BOND
     1    1    2 1    
     2    1   67 1    
     3    1   68 1    
     4    1   69 1    
     5    2    3 2    
     6    2    4 am   BACKBONE|DICT|INTERRES
     7    4    5 1    
     8    4   70 1    
     9    5    6 1    
    10    5   65 1    
    11    5   71 1    
    12    6    7 1    
    13    6   72 1    
    14    6   73 1    
    15    7    8 1    
    16    8    9 1    
    17    8   74 1    
    18    8   75 1    
    19    9   10 ar   
    20    9   14 ar   
    21   10   11 ar   
    22   10   76 1    
    23   11   12 ar   
    24   11   48 1    
    25   12   13 ar   
    26   12   77 1    
    27   13   14 ar   
    28   13   15 1    
    29   14   78 1    
    30   15   16 1    
    31   15   79 1    
    32   15   80 1    
    33   16   17 1    
    34   17   18 1    
    35   17   81 1    
    36   17   82 1    
    37   18   19 1    
    38   18   22 1    
    39   18   83 1    
    40   19   20 am   BACKBONE|DICT|INTERRES
    41   19   21 2    
    42   20   84 1    
    43   20   85 1    
    44   22   23 am   BACKBONE|DICT|INTERRES
    45   22   86 1    
    46   23   24 2    
    47   23   25 1    
    48   25   26 1    
    49   25   27 1    
    50   25   87 1    
    51   26   88 1    
    52   26   89 1    
    53   26   90 1    
    54   27   28 am   BACKBONE|DICT|INTERRES
    55   27   91 1    
    56   28   29 2    
    57   28   30 1    
    58   30   31 1    
    59   30   32 1    
    60   30   92 1    
    61   31   93 1    
    62   31   94 1    
    63   31   95 1    
    64   32   33 am   BACKBONE|DICT|INTERRES
    65   32   96 1    
    66   33   34 2    
    67   33   35 1    
    68   35   36 1    
    69   35   37 1    
    70   35   97 1    
    71   36   98 1    
    72   36   99 1    
    73   36  100 1    
    74   37   38 am   BACKBONE|DICT|INTERRES
    75   37  101 1    
    76   38   39 2    
    77   38   40 1    
    78   40   41 1    
    79   40   42 1    
    80   40  102 1    
    81   41  103 1    
    82   41  104 1    
    83   41  105 1    
    84   42   43 am   BACKBONE|DICT|INTERRES
    85   42  106 1    
    86   43   44 2    
    87   43   45 1    
    88   45   46 1    
    89   45   49 1    
    90   45  107 1    
    91   46   47 1    
    92   46  108 1    
    93   46  109 1    
    94   47   48 1    
    95   48  110 1    
    96   48  111 1    
    97   49   50 am   BACKBONE|DICT|INTERRES
    98   49  112 1    
    99   50   51 2    
   100   50   52 1    
   101   52   53 1    
   102   52   54 1    
   103   52  113 1    
   104   53  114 1    
   105   53  115 1    
   106   53  116 1    
   107   54   55 am   BACKBONE|DICT|INTERRES
   108   54  117 1    
   109   55   56 2    
   110   55   57 1    
   111   57   58 1    
   112   57   59 1    
   113   57  118 1    
   114   58  119 1    
   115   58  120 1    
   116   58  121 1    
   117   59   60 am   BACKBONE|DICT|INTERRES
   118   59  122 1    
   119   60   61 2    
   120   60   62 1    
   121   62   63 1    
   122   62   64 1    
   123   62  123 1    
   124   63  124 1    
   125   63  125 1    
   126   63  126 1    
   127   64   65 am   BACKBONE|DICT|INTERRES
   128   64  127 1    
   129   65   66 2    
@<TRIPOS>SUBSTRUCTURE
     1 UNK         1 GROUP             0       ****    0 ROOT    
