@<TRIPOS>MOLECULE
3R135
127   129    1
SMALL
USER_CHARGES


@<TRIPOS>ATOM
      1 CA        -78.3662   29.0284  -68.1036 C.3       0 UNK        -0.1998 
      2 C         -79.3636   28.0643  -68.7289 C.2       0 UNK         0.4909 
      3 O         -79.9502   27.2454  -68.0202 O.2       0 UNK        -0.5240 
      4 N         -79.5684   28.1648  -70.0477 N.am      1 UNK        -0.4739 
      5 CA        -80.4662   27.2988  -70.8172 C.3       1 UNK         0.0864 
      6 C6        -80.8396   27.9227  -72.1828 C.3       11 UNK        -0.0881 
      7 S7        -82.0147   29.3158  -72.0459 S.3       11 UNK        -0.2682 
      8 C8        -80.9492   30.8035  -72.0578 C.3       11 UNK         0.0289 
      9 C9        -79.9349   30.8879  -73.1993 C.ar      11 UNK        -0.0687 
     10 C10       -80.1584   30.2875  -74.4455 C.ar      11 UNK        -0.0823 
     11 C11       -79.1613   30.2911  -75.4245 C.ar      11 UNK        -0.0830 
     12 C12       -77.9697   30.9818  -75.1929 C.ar      11 UNK        -0.1021 
     13 C13       -77.7341   31.5900  -73.9586 C.ar      11 UNK        -0.0753 
     14 C14       -78.7245   31.5509  -72.9728 C.ar      11 UNK        -0.0933 
     15 C15       -76.3737   32.2049  -73.6550 C.3       11 UNK         0.0166 
     16 S16       -75.0188   30.9863  -73.7984 S.3       11 UNK        -0.2615 
     17 C17       -75.6063   29.6067  -72.7489 C.3       11 UNK        -0.0865 
     18 CA        -74.6272   29.2497  -71.5986 C.3       10 UNK         0.0862 
     19 C         -75.2482   28.2466  -70.5776 C.2       10 UNK         0.5551 
     20 N         -74.4459   27.6116  -69.7328 N.am      10 UNK        -0.7319 
     21 O         -76.4599   28.0427  -70.5463 O.2       10 UNK        -0.5018 
     22 N         -73.2948   28.8655  -72.1033 N.am      10 UNK        -0.4509 
     23 C         -73.0074   27.7361  -72.7650 C.2       10 UNK         0.4899 
     24 O         -73.8160   26.8263  -72.9616 O.2       10 UNK        -0.4839 
     25 CA        -71.5569   27.6012  -73.2703 C.3       9 UNK         0.0222 
     26 CB        -70.5981   27.3279  -72.0982 C.3       9 UNK        -0.1966 
     27 N         -71.4100   26.5267  -74.2570 N.am      9 UNK        -0.4218 
     28 C         -71.9699   26.5145  -75.4742 C.2       9 UNK         0.5020 
     29 O         -72.5652   27.4766  -75.9655 O.2       9 UNK        -0.5274 
     30 CA        -71.8635   25.1835  -76.2401 C.3       8 UNK         0.0270 
     31 CB        -72.5993   24.0577  -75.4872 C.3       8 UNK        -0.1976 
     32 N         -72.4360   25.2855  -77.5818 N.am      8 UNK        -0.4313 
     33 C         -71.8071   25.7691  -78.6592 C.2       8 UNK         0.5041 
     34 O         -70.6339   26.1468  -78.6538 O.2       8 UNK        -0.5577 
     35 CA        -72.6067   25.8293  -79.9698 C.3       7 UNK         0.0284 
     36 CB        -72.6105   24.4549  -80.6607 C.3       7 UNK        -0.1958 
     37 N         -73.9902   26.2647  -79.7559 N.am      7 UNK        -0.4454 
     38 C         -74.5741   27.3002  -80.3761 C.2       7 UNK         0.5089 
     39 O         -74.0019   28.0176  -81.1980 O.2       7 UNK        -0.5125 
     40 CA        -76.0555   27.5854  -80.0528 C.3       6 UNK         0.0408 
     41 CB        -76.9619   27.0197  -81.1576 C.3       6 UNK        -0.1791 
     42 N         -76.4865   27.0459  -78.7622 N.am      6 UNK        -0.4762 
     43 C         -76.1154   27.5310  -77.5692 C.2       6 UNK         0.5007 
     44 O         -75.4650   28.5676  -77.4379 O.2       6 UNK        -0.5032 
     45 CA        -76.5326   26.7337  -76.3099 C.3       5 UNK         0.0783 
     46 C46       -77.6002   27.4996  -75.4936 C.3       11 UNK        -0.0857 
     47 S47       -79.2283   27.6679  -76.3227 S.3       11 UNK        -0.2512 
     48 C48       -79.3227   29.4577  -76.6874 C.3       11 UNK         0.0225 
     49 N         -76.9326   25.3344  -76.5337 N.am      5 UNK        -0.4615 
     50 C         -76.1936   24.3824  -77.1206 C.2       4 UNK         0.5053 
     51 O         -75.1020   24.6028  -77.6459 O.2       4 UNK        -0.5105 
     52 CA        -76.7625   22.9562  -77.1251 C.3       4 UNK         0.0263 
     53 CB        -75.6862   21.8909  -77.4112 C.3       4 UNK        -0.1981 
     54 N         -77.4106   22.6576  -75.8474 N.am      4 UNK        -0.4224 
     55 C         -78.6391   22.1450  -75.7069 C.2       3 UNK         0.4895 
     56 O         -79.3731   21.8557  -76.6528 O.2       3 UNK        -0.5091 
     57 CA        -79.1449   21.8971  -74.2725 C.3       3 UNK         0.0250 
     58 CB        -79.0393   20.4031  -73.9229 C.3       3 UNK        -0.1996 
     59 N         -78.4769   22.6800  -73.2242 N.am      3 UNK        -0.4254 
     60 C         -78.5405   24.0130  -73.1043 C.2       2 UNK         0.5004 
     61 O         -79.0611   24.7497  -73.9442 O.2       2 UNK        -0.5226 
     62 CA        -77.8863   24.6202  -71.8464 C.3       2 UNK         0.0269 
     63 CB        -76.4110   24.9442  -72.1265 C.3       2 UNK        -0.1926 
     64 N         -78.5671   25.8372  -71.3867 N.am      2 UNK        -0.4687 
     65 C         -79.8613   25.8979  -71.0335 C.2       1 UNK         0.5165 
     66 O         -80.5794   24.9054  -70.8957 O.2       1 UNK        -0.5079 
     67 H67       -78.0042   29.7617  -68.8242 H         1 UNK         0.0900 
     68 H68       -77.5065   28.4789  -67.7210 H         1 UNK         0.0900 
     69 H69       -78.8275   29.5655  -67.2754 H         1 UNK         0.0900 
     70 H70       -79.0256   28.8282  -70.5810 H         1 UNK         0.2959 
     71 H71       -81.3853   27.1605  -70.2425 H         1 UNK         0.1079 
     72 H72       -79.9398   28.2160  -72.7245 H         1 UNK         0.0837 
     73 H73       -81.3288   27.1821  -72.8198 H         1 UNK         0.0837 
     74 H74       -81.5894   31.6853  -72.0999 H         1 UNK         0.0685 
     75 H75       -80.4320   30.8466  -71.0981 H         1 UNK         0.0685 
     76 H76       -81.0766   29.7488  -74.6332 H         1 UNK         0.1434 
     77 H77       -77.1866   30.9728  -75.9395 H         1 UNK         0.1329 
     78 H78       -78.5360   32.0042  -72.0090 H         1 UNK         0.1335 
     79 H79       -76.1883   33.0271  -74.3474 H         1 UNK         0.0680 
     80 H80       -76.3544   32.6335  -72.6517 H         1 UNK         0.0680 
     81 H81       -75.7737   28.7353  -73.3822 H         1 UNK         0.1032 
     82 H82       -76.5808   29.8625  -72.3343 H         1 UNK         0.1032 
     83 H83       -74.4731   30.1617  -71.0210 H         1 UNK         0.0461 
     84 H84       -74.8418   26.9618  -69.0732 H         1 UNK         0.3453 
     85 H85       -73.4509   27.7651  -69.7587 H         1 UNK         0.3453 
     86 H86       -72.5654   29.5508  -71.9709 H         1 UNK         0.2984 
     87 H87       -71.2730   28.5410  -73.7484 H         1 UNK         0.0554 
     88 H88       -70.8521   26.4042  -71.5761 H         1 UNK         0.0847 
     89 H89       -70.6286   28.1340  -71.3641 H         1 UNK         0.0847 
     90 H90       -69.5656   27.2477  -72.4392 H         1 UNK         0.0847 
     91 H91       -70.9655   25.6818  -73.9297 H         1 UNK         0.3141 
     92 H92       -70.8073   24.9185  -76.3241 H         1 UNK         0.0743 
     93 H93       -72.6027   23.1312  -76.0618 H         1 UNK         0.0784 
     94 H94       -72.1230   23.8382  -74.5313 H         1 UNK         0.0784 
     95 H95       -73.6359   24.3253  -75.2776 H         1 UNK         0.0784 
     96 H96       -73.4158   25.0168  -77.6583 H         1 UNK         0.3213 
     97 H97       -72.0856   26.5326  -80.6231 H         1 UNK         0.0855 
     98 H98       -73.1301   23.7039  -80.0639 H         1 UNK         0.0814 
     99 H99       -71.5932   24.0969  -80.8252 H         1 UNK         0.0814 
    100 H100      -73.0979   24.5042  -81.6345 H         1 UNK         0.0814 
    101 H101      -74.5322   25.7449  -79.0717 H         1 UNK         0.3105 
    102 H102      -76.1847   28.6696  -80.0299 H         1 UNK         0.0547 
    103 H103      -76.6903   27.4286  -82.1318 H         1 UNK         0.0837 
    104 H104      -76.8846   25.9340  -81.2280 H         1 UNK         0.0837 
    105 H105      -78.0076   27.2731  -80.9828 H         1 UNK         0.0837 
    106 H106      -77.0408   26.2020  -78.7781 H         1 UNK         0.3020 
    107 H107      -75.6292   26.6886  -75.6956 H         1 UNK         0.1245 
    108 H108      -77.2079   28.4762  -75.2209 H         1 UNK         0.0781 
    109 H109      -77.7671   26.9942  -74.5420 H         1 UNK         0.0781 
    110 H110      -78.5592   29.7130  -77.4241 H         1 UNK         0.0836 
    111 H111      -80.2851   29.6791  -77.1508 H         1 UNK         0.0836 
    112 H112      -77.8274   25.0750  -76.1381 H         1 UNK         0.3022 
    113 H113      -77.4913   22.9276  -77.9375 H         1 UNK         0.0747 
    114 H114      -76.1168   20.8897  -77.4313 H         1 UNK         0.0793 
    115 H115      -75.2142   22.0573  -78.3805 H         1 UNK         0.0793 
    116 H116      -74.8986   21.9020  -76.6569 H         1 UNK         0.0793 
    117 H117      -76.8873   22.8820  -75.0130 H         1 UNK         0.3047 
    118 H118      -80.2014   22.1740  -74.2601 H         1 UNK         0.0822 
    119 H119      -79.4939   20.1872  -72.9557 H         1 UNK         0.0807 
    120 H120      -78.0016   20.0684  -73.8905 H         1 UNK         0.0807 
    121 H121      -79.5557   19.7901  -74.6632 H         1 UNK         0.0807 
    122 H122      -78.0086   22.1494  -72.5032 H         1 UNK         0.2946 
    123 H123      -77.9416   23.8878  -71.0381 H         1 UNK         0.1144 
    124 H124      -75.8670   24.0632  -72.4689 H         1 UNK         0.0793 
    125 H125      -75.9056   25.3024  -71.2298 H         1 UNK         0.0793 
    126 H126      -76.3070   25.7104  -72.8957 H         1 UNK         0.0793 
    127 H127      -78.0277   26.6939  -71.4041 H         1 UNK         0.2896 
@<TRIPOS>BOND
     1    1    2 1    
     2    1   67 1    
     3    1   68 1    
     4    1   69 1    
     5    2    3 2    
     6    2    4 am   BACKBONE|DICT|INTERRES
     7    4    5 1    
     8    4   70 1    
     9    5    6 1    
    10    5   65 1    
    11    5   71 1    
    12    6    7 1    
    13    6   72 1    
    14    6   73 1    
    15    7    8 1    
    16    8    9 1    
    17    8   74 1    
    18    8   75 1    
    19    9   10 ar   
    20    9   14 ar   
    21   10   11 ar   
    22   10   76 1    
    23   11   12 ar   
    24   11   48 1    
    25   12   13 ar   
    26   12   77 1    
    27   13   14 ar   
    28   13   15 1    
    29   14   78 1    
    30   15   16 1    
    31   15   79 1    
    32   15   80 1    
    33   16   17 1    
    34   17   18 1    
    35   17   81 1    
    36   17   82 1    
    37   18   19 1    
    38   18   22 1    
    39   18   83 1    
    40   19   20 am   BACKBONE|DICT|INTERRES
    41   19   21 2    
    42   20   84 1    
    43   20   85 1    
    44   22   23 am   BACKBONE|DICT|INTERRES
    45   22   86 1    
    46   23   24 2    
    47   23   25 1    
    48   25   26 1    
    49   25   27 1    
    50   25   87 1    
    51   26   88 1    
    52   26   89 1    
    53   26   90 1    
    54   27   28 am   BACKBONE|DICT|INTERRES
    55   27   91 1    
    56   28   29 2    
    57   28   30 1    
    58   30   31 1    
    59   30   32 1    
    60   30   92 1    
    61   31   93 1    
    62   31   94 1    
    63   31   95 1    
    64   32   33 am   BACKBONE|DICT|INTERRES
    65   32   96 1    
    66   33   34 2    
    67   33   35 1    
    68   35   36 1    
    69   35   37 1    
    70   35   97 1    
    71   36   98 1    
    72   36   99 1    
    73   36  100 1    
    74   37   38 am   BACKBONE|DICT|INTERRES
    75   37  101 1    
    76   38   39 2    
    77   38   40 1    
    78   40   41 1    
    79   40   42 1    
    80   40  102 1    
    81   41  103 1    
    82   41  104 1    
    83   41  105 1    
    84   42   43 am   BACKBONE|DICT|INTERRES
    85   42  106 1    
    86   43   44 2    
    87   43   45 1    
    88   45   46 1    
    89   45   49 1    
    90   45  107 1    
    91   46   47 1    
    92   46  108 1    
    93   46  109 1    
    94   47   48 1    
    95   48  110 1    
    96   48  111 1    
    97   49   50 am   BACKBONE|DICT|INTERRES
    98   49  112 1    
    99   50   51 2    
   100   50   52 1    
   101   52   53 1    
   102   52   54 1    
   103   52  113 1    
   104   53  114 1    
   105   53  115 1    
   106   53  116 1    
   107   54   55 am   BACKBONE|DICT|INTERRES
   108   54  117 1    
   109   55   56 2    
   110   55   57 1    
   111   57   58 1    
   112   57   59 1    
   113   57  118 1    
   114   58  119 1    
   115   58  120 1    
   116   58  121 1    
   117   59   60 am   BACKBONE|DICT|INTERRES
   118   59  122 1    
   119   60   61 2    
   120   60   62 1    
   121   62   63 1    
   122   62   64 1    
   123   62  123 1    
   124   63  124 1    
   125   63  125 1    
   126   63  126 1    
   127   64   65 am   BACKBONE|DICT|INTERRES
   128   64  127 1    
   129   65   66 2    
@<TRIPOS>SUBSTRUCTURE
     1 UNK         1 GROUP             0       ****    0 ROOT    
