@<TRIPOS>MOLECULE
3R135
127   129    1
SMALL
USER_CHARGES


@<TRIPOS>ATOM
      1 CA        -83.9053   24.0227  -72.8419 C.3       0 UNK        -0.1998 
      2 C         -83.2721   25.2532  -73.4731 C.2       0 UNK         0.4909 
      3 O         -83.3084   25.4034  -74.6951 O.2       0 UNK        -0.5240 
      4 N         -82.6972   26.1397  -72.6502 N.am      1 UNK        -0.4739 
      5 CA        -82.0035   27.3548  -73.0888 C.3       1 UNK         0.0864 
      6 C6        -81.7745   28.3557  -71.9273 C.3       11 UNK        -0.0881 
      7 S7        -80.9121   27.6593  -70.4737 S.3       11 UNK        -0.2682 
      8 C8        -79.5991   28.8891  -70.1879 C.3       11 UNK         0.0289 
      9 C9        -78.4206   28.7135  -71.1358 C.ar      11 UNK        -0.0687 
     10 C10       -77.5179   27.6671  -70.9329 C.ar      11 UNK        -0.0823 
     11 C11       -76.4085   27.5133  -71.7673 C.ar      11 UNK        -0.0830 
     12 C12       -76.2106   28.4116  -72.8191 C.ar      11 UNK        -0.1021 
     13 C13       -77.0872   29.4868  -73.0195 C.ar      11 UNK        -0.0753 
     14 C14       -78.1992   29.6182  -72.1793 C.ar      11 UNK        -0.0933 
     15 C15       -76.8759   30.5248  -74.1257 C.3       11 UNK         0.0166 
     16 S16       -75.1623   30.7174  -74.7278 S.3       11 UNK        -0.2615 
     17 C17       -74.3224   31.3002  -73.2204 C.3       11 UNK        -0.0865 
     18 CA        -72.8645   31.7595  -73.4812 C.3       10 UNK         0.0862 
     19 C         -72.3105   32.5009  -72.2267 C.2       10 UNK         0.5551 
     20 N         -71.3484   31.9494  -71.4963 N.am      10 UNK        -0.7319 
     21 O         -72.7639   33.5993  -71.9145 O.2       10 UNK        -0.5018 
     22 N         -72.0077   30.6614  -73.9774 N.am      10 UNK        -0.4509 
     23 C         -70.7986   30.8576  -74.5291 C.2       10 UNK         0.4899 
     24 O         -70.3441   31.9742  -74.7810 O.2       10 UNK        -0.4839 
     25 CA        -69.9194   29.6339  -74.8318 C.3       9 UNK         0.0222 
     26 CB        -68.9381   29.3858  -73.6686 C.3       9 UNK        -0.1966 
     27 N         -70.6928   28.4259  -75.1172 N.am      9 UNK        -0.4218 
     28 C         -70.2338   27.3248  -75.7213 C.2       9 UNK         0.5020 
     29 O         -69.0749   27.1933  -76.1185 O.2       9 UNK        -0.5274 
     30 CA        -71.2294   26.1672  -75.9287 C.3       8 UNK         0.0270 
     31 CB        -71.4231   25.3640  -74.6269 C.3       8 UNK        -0.1976 
     32 N         -72.5201   26.5610  -76.5111 N.am      8 UNK        -0.4313 
     33 C         -73.4671   27.3616  -76.0078 C.2       8 UNK         0.5041 
     34 O         -73.3686   27.9159  -74.9125 O.2       8 UNK        -0.5577 
     35 CA        -74.7259   27.5947  -76.8650 C.3       7 UNK         0.0284 
     36 CB        -74.4488   28.5932  -78.0037 C.3       7 UNK        -0.1958 
     37 N         -75.3530   26.3628  -77.3620 N.am      7 UNK        -0.4454 
     38 C         -74.8689   25.4215  -78.1873 C.2       7 UNK         0.5089 
     39 O         -73.7965   25.5124  -78.7887 O.2       7 UNK        -0.5125 
     40 CA        -75.7086   24.1293  -78.2678 C.3       6 UNK         0.0408 
     41 CB        -75.0011   22.9785  -79.0131 C.3       6 UNK        -0.1791 
     42 N         -76.1477   23.7253  -76.9241 N.am      6 UNK        -0.4762 
     43 C         -75.3613   23.4062  -75.8825 C.2       6 UNK         0.5007 
     44 O         -74.1670   23.1259  -75.9826 O.2       6 UNK        -0.5032 
     45 CA        -75.9897   23.4806  -74.4782 C.3       5 UNK         0.0783 
     46 C46       -75.5420   24.7831  -73.7708 C.3       11 UNK        -0.0857 
     47 S47       -76.0085   24.7785  -72.0116 S.3       11 UNK        -0.2512 
     48 C48       -75.3987   26.4092  -71.4904 C.3       11 UNK         0.0225 
     49 N         -77.4511   23.3828  -74.5211 N.am      5 UNK        -0.4615 
     50 C         -78.1372   22.2358  -74.4726 C.2       4 UNK         0.5053 
     51 O         -77.6151   21.1233  -74.3979 O.2       4 UNK        -0.5105 
     52 CA        -79.6690   22.3537  -74.5207 C.3       4 UNK         0.0263 
     53 CB        -80.2363   22.5789  -73.1101 C.3       4 UNK        -0.1981 
     54 N         -80.1119   23.4276  -75.4151 N.am      4 UNK        -0.4224 
     55 C         -80.0457   23.3510  -76.7535 C.2       3 UNK         0.4895 
     56 O         -79.6697   22.3476  -77.3598 O.2       3 UNK        -0.5091 
     57 CA        -80.4474   24.5933  -77.5672 C.3       3 UNK         0.0250 
     58 CB        -81.8966   24.4644  -78.0626 C.3       3 UNK        -0.1996 
     59 N         -80.2963   25.8586  -76.8472 N.am      3 UNK        -0.4254 
     60 C         -79.1308   26.3868  -76.4475 C.2       2 UNK         0.5004 
     61 O         -78.0370   25.8493  -76.6120 O.2       2 UNK        -0.5226 
     62 CA        -79.1996   27.7320  -75.7091 C.3       2 UNK         0.0269 
     63 CB        -79.1882   28.8796  -76.7329 C.3       2 UNK        -0.1926 
     64 N         -80.3733   27.8695  -74.8401 N.am      2 UNK        -0.4687 
     65 C         -80.7035   27.0255  -73.8511 C.2       1 UNK         0.5165 
     66 O         -80.0498   26.0194  -73.5621 O.2       1 UNK        -0.5079 
     67 H67       -83.6841   23.1364  -73.4358 H         1 UNK         0.0900 
     68 H68       -83.5371   23.8531  -71.8302 H         1 UNK         0.0900 
     69 H69       -84.9876   24.1398  -72.7989 H         1 UNK         0.0900 
     70 H70       -82.6531   25.9549  -71.6579 H         1 UNK         0.2959 
     71 H71       -82.6696   27.8457  -73.8025 H         1 UNK         0.1079 
     72 H72       -82.7407   28.7259  -71.5811 H         1 UNK         0.0837 
     73 H73       -81.2438   29.2386  -72.2880 H         1 UNK         0.0837 
     74 H74       -79.2452   28.7844  -69.1613 H         1 UNK         0.0685 
     75 H75       -80.0147   29.8954  -70.2601 H         1 UNK         0.0685 
     76 H76       -77.6753   26.9745  -70.1171 H         1 UNK         0.1434 
     77 H77       -75.3523   28.2851  -73.4604 H         1 UNK         0.1329 
     78 H78       -78.8869   30.4395  -72.3279 H         1 UNK         0.1335 
     79 H79       -77.4955   30.2523  -74.9758 H         1 UNK         0.0680 
     80 H80       -77.2286   31.5009  -73.7890 H         1 UNK         0.0680 
     81 H81       -74.3406   30.5094  -72.4688 H         1 UNK         0.1032 
     82 H82       -74.9163   32.1207  -72.8121 H         1 UNK         0.1032 
     83 H83       -72.9035   32.5119  -74.2716 H         1 UNK         0.0461 
     84 H84       -70.9972   32.4409  -70.6896 H         1 UNK         0.3453 
     85 H85       -70.9734   31.0481  -71.7420 H         1 UNK         0.3453 
     86 H86       -72.3581   29.7269  -73.8216 H         1 UNK         0.2984 
     87 H87       -69.3411   29.8787  -75.7253 H         1 UNK         0.0554 
     88 H88       -68.3880   30.2939  -73.4176 H         1 UNK         0.0847 
     89 H89       -68.1985   28.6266  -73.9224 H         1 UNK         0.0847 
     90 H90       -69.4575   29.0575  -72.7678 H         1 UNK         0.0847 
     91 H91       -71.6889   28.4297  -74.8958 H         1 UNK         0.3141 
     92 H92       -70.7768   25.4948  -76.6593 H         1 UNK         0.0743 
     93 H93       -70.4654   25.0131  -74.2405 H         1 UNK         0.0784 
     94 H94       -72.0450   24.4851  -74.7955 H         1 UNK         0.0784 
     95 H95       -71.8904   25.9589  -73.8417 H         1 UNK         0.0784 
     96 H96       -72.7244   26.1634  -77.4269 H         1 UNK         0.3213 
     97 H97       -75.4669   28.0497  -76.2056 H         1 UNK         0.0855 
     98 H98       -73.7192   28.2115  -78.7182 H         1 UNK         0.0814 
     99 H99       -74.0559   29.5308  -77.6076 H         1 UNK         0.0814 
    100 H100      -75.3614   28.8307  -78.5502 H         1 UNK         0.0814 
    101 H101      -76.2693   26.1634  -76.9624 H         1 UNK         0.3105 
    102 H102      -76.6127   24.3800  -78.8246 H         1 UNK         0.0547 
    103 H103      -75.6157   22.0787  -79.0271 H         1 UNK         0.0837 
    104 H104      -74.0423   22.7239  -78.5612 H         1 UNK         0.0837 
    105 H105      -74.8038   23.2537  -80.0496 H         1 UNK         0.0837 
    106 H106      -77.1035   23.9816  -76.7049 H         1 UNK         0.3020 
    107 H107      -75.5894   22.6334  -73.9157 H         1 UNK         0.1245 
    108 H108      -75.9774   25.6604  -74.2542 H         1 UNK         0.0781 
    109 H109      -74.4581   24.9054  -73.8261 H         1 UNK         0.0781 
    110 H110      -74.4443   26.6221  -71.9757 H         1 UNK         0.0836 
    111 H111      -75.1906   26.3772  -70.4200 H         1 UNK         0.0836 
    112 H112      -77.9610   24.2546  -74.5582 H         1 UNK         0.3022 
    113 H113      -80.0645   21.4072  -74.8960 H         1 UNK         0.0747 
    114 H114      -81.3247   22.5988  -73.1199 H         1 UNK         0.0793 
    115 H115      -79.9348   21.7749  -72.4373 H         1 UNK         0.0793 
    116 H116      -79.8851   23.5147  -72.6739 H         1 UNK         0.0793 
    117 H117      -80.4036   24.2965  -74.9832 H         1 UNK         0.3047 
    118 H118      -79.7908   24.6319  -78.4393 H         1 UNK         0.0822 
    119 H119      -82.1684   25.2922  -78.7179 H         1 UNK         0.0807 
    120 H120      -82.6056   24.4443  -77.2338 H         1 UNK         0.0807 
    121 H121      -82.0349   23.5441  -78.6320 H         1 UNK         0.0807 
    122 H122      -81.1457   26.3619  -76.6334 H         1 UNK         0.2946 
    123 H123      -78.3127   27.8062  -75.0762 H         1 UNK         0.1144 
    124 H124      -79.3069   29.8522  -76.2569 H         1 UNK         0.0793 
    125 H125      -79.9913   28.7771  -77.4641 H         1 UNK         0.0793 
    126 H126      -78.2468   28.8974  -77.2844 H         1 UNK         0.0793 
    127 H127      -80.9664   28.6678  -75.0164 H         1 UNK         0.2896 
@<TRIPOS>BOND
     1    1    2 1    
     2    1   67 1    
     3    1   68 1    
     4    1   69 1    
     5    2    3 2    
     6    2    4 am   BACKBONE|DICT|INTERRES
     7    4    5 1    
     8    4   70 1    
     9    5    6 1    
    10    5   65 1    
    11    5   71 1    
    12    6    7 1    
    13    6   72 1    
    14    6   73 1    
    15    7    8 1    
    16    8    9 1    
    17    8   74 1    
    18    8   75 1    
    19    9   10 ar   
    20    9   14 ar   
    21   10   11 ar   
    22   10   76 1    
    23   11   12 ar   
    24   11   48 1    
    25   12   13 ar   
    26   12   77 1    
    27   13   14 ar   
    28   13   15 1    
    29   14   78 1    
    30   15   16 1    
    31   15   79 1    
    32   15   80 1    
    33   16   17 1    
    34   17   18 1    
    35   17   81 1    
    36   17   82 1    
    37   18   19 1    
    38   18   22 1    
    39   18   83 1    
    40   19   20 am   BACKBONE|DICT|INTERRES
    41   19   21 2    
    42   20   84 1    
    43   20   85 1    
    44   22   23 am   BACKBONE|DICT|INTERRES
    45   22   86 1    
    46   23   24 2    
    47   23   25 1    
    48   25   26 1    
    49   25   27 1    
    50   25   87 1    
    51   26   88 1    
    52   26   89 1    
    53   26   90 1    
    54   27   28 am   BACKBONE|DICT|INTERRES
    55   27   91 1    
    56   28   29 2    
    57   28   30 1    
    58   30   31 1    
    59   30   32 1    
    60   30   92 1    
    61   31   93 1    
    62   31   94 1    
    63   31   95 1    
    64   32   33 am   BACKBONE|DICT|INTERRES
    65   32   96 1    
    66   33   34 2    
    67   33   35 1    
    68   35   36 1    
    69   35   37 1    
    70   35   97 1    
    71   36   98 1    
    72   36   99 1    
    73   36  100 1    
    74   37   38 am   BACKBONE|DICT|INTERRES
    75   37  101 1    
    76   38   39 2    
    77   38   40 1    
    78   40   41 1    
    79   40   42 1    
    80   40  102 1    
    81   41  103 1    
    82   41  104 1    
    83   41  105 1    
    84   42   43 am   BACKBONE|DICT|INTERRES
    85   42  106 1    
    86   43   44 2    
    87   43   45 1    
    88   45   46 1    
    89   45   49 1    
    90   45  107 1    
    91   46   47 1    
    92   46  108 1    
    93   46  109 1    
    94   47   48 1    
    95   48  110 1    
    96   48  111 1    
    97   49   50 am   BACKBONE|DICT|INTERRES
    98   49  112 1    
    99   50   51 2    
   100   50   52 1    
   101   52   53 1    
   102   52   54 1    
   103   52  113 1    
   104   53  114 1    
   105   53  115 1    
   106   53  116 1    
   107   54   55 am   BACKBONE|DICT|INTERRES
   108   54  117 1    
   109   55   56 2    
   110   55   57 1    
   111   57   58 1    
   112   57   59 1    
   113   57  118 1    
   114   58  119 1    
   115   58  120 1    
   116   58  121 1    
   117   59   60 am   BACKBONE|DICT|INTERRES
   118   59  122 1    
   119   60   61 2    
   120   60   62 1    
   121   62   63 1    
   122   62   64 1    
   123   62  123 1    
   124   63  124 1    
   125   63  125 1    
   126   63  126 1    
   127   64   65 am   BACKBONE|DICT|INTERRES
   128   64  127 1    
   129   65   66 2    
@<TRIPOS>SUBSTRUCTURE
     1 UNK         1 GROUP             0       ****    0 ROOT    
