@<TRIPOS>MOLECULE
3R135
127   129    1
SMALL
USER_CHARGES


@<TRIPOS>ATOM
      1 CA        -82.2614   23.8014  -74.4108 C.3       0 UNK        -0.1998 
      2 C         -82.1715   25.0040  -75.3377 C.2       0 UNK         0.4909 
      3 O         -82.7830   25.0051  -76.4067 O.2       0 UNK        -0.5240 
      4 N         -81.3991   26.0256  -74.9494 N.am      1 UNK        -0.4739 
      5 CA        -81.1680   27.2711  -75.6921 C.3       1 UNK         0.0864 
      6 C6        -80.7988   28.4383  -74.7375 C.3       11 UNK        -0.0881 
      7 S7        -79.4077   28.0754  -73.6117 S.3       11 UNK        -0.2682 
      8 C8        -79.4412   29.5531  -72.5516 C.3       11 UNK         0.0289 
      9 C9        -78.1817   29.6286  -71.7047 C.ar      11 UNK        -0.0687 
     10 C10       -77.9692   28.6872  -70.6960 C.ar      11 UNK        -0.0823 
     11 C11       -76.7809   28.6882  -69.9632 C.ar      11 UNK        -0.0830 
     12 C12       -75.8330   29.6885  -70.1932 C.ar      11 UNK        -0.1021 
     13 C13       -76.0397   30.6521  -71.1877 C.ar      11 UNK        -0.0753 
     14 C14       -77.2159   30.6111  -71.9447 C.ar      11 UNK        -0.0933 
     15 C15       -75.0022   31.7394  -71.4576 C.3       11 UNK         0.0166 
     16 S16       -73.2843   31.1248  -71.4974 S.3       11 UNK        -0.2615 
     17 C17       -73.3906   29.8867  -72.8310 C.3       11 UNK        -0.0865 
     18 CA        -72.0383   29.1984  -73.1369 C.3       10 UNK         0.0862 
     19 C         -71.6100   28.2104  -72.0156 C.2       10 UNK         0.5551 
     20 N         -72.0959   26.9747  -72.0139 N.am      10 UNK        -0.7319 
     21 O         -70.8083   28.5603  -71.1528 O.2       10 UNK        -0.5018 
     22 N         -72.0847   28.5698  -74.4591 N.am      10 UNK        -0.4509 
     23 C         -71.0207   28.2065  -75.1837 C.2       10 UNK         0.4899 
     24 O         -69.8540   28.4218  -74.8545 O.2       10 UNK        -0.4839 
     25 CA        -71.3096   27.4927  -76.5123 C.3       9 UNK         0.0222 
     26 CB        -71.5154   25.9885  -76.2693 C.3       9 UNK        -0.1966 
     27 N         -72.4980   28.0478  -77.1669 N.am      9 UNK        -0.4218 
     28 C         -72.4754   28.9840  -78.1267 C.2       9 UNK         0.5020 
     29 O         -71.4391   29.4550  -78.5980 O.2       9 UNK        -0.5274 
     30 CA        -73.8287   29.4754  -78.6782 C.3       8 UNK         0.0270 
     31 CB        -74.1932   28.7078  -79.9598 C.3       8 UNK        -0.1976 
     32 N         -74.9311   29.3577  -77.7218 N.am      8 UNK        -0.4313 
     33 C         -75.0960   30.1354  -76.6430 C.2       8 UNK         0.5041 
     34 O         -74.3757   31.0972  -76.3756 O.2       8 UNK        -0.5577 
     35 CA        -76.2439   29.7631  -75.6844 C.3       7 UNK         0.0284 
     36 CB        -77.4980   30.5886  -76.0107 C.3       7 UNK        -0.1958 
     37 N         -76.5911   28.3351  -75.6680 N.am      7 UNK        -0.4454 
     38 C         -75.7467   27.3381  -75.3760 C.2       7 UNK         0.5089 
     39 O         -74.5449   27.5153  -75.1792 O.2       7 UNK        -0.5125 
     40 CA        -76.3201   25.9106  -75.3813 C.3       6 UNK         0.0408 
     41 CB        -75.4542   24.9625  -76.2321 C.3       6 UNK        -0.1791 
     42 N         -76.5289   25.3486  -74.0424 N.am      6 UNK        -0.4762 
     43 C         -75.6487   25.1961  -73.0352 C.2       6 UNK         0.5007 
     44 O         -74.4702   25.5501  -73.0722 O.2       6 UNK        -0.5032 
     45 CA        -76.1659   24.4483  -71.7825 C.3       5 UNK         0.0783 
     46 C46       -76.7826   25.4095  -70.7374 C.3       11 UNK        -0.0857 
     47 S47       -75.5315   26.2359  -69.6968 S.3       11 UNK        -0.2512 
     48 C48       -76.5031   27.5875  -68.9515 C.3       11 UNK         0.0225 
     49 N         -77.1147   23.3885  -72.1394 N.am      5 UNK        -0.4615 
     50 C         -76.7927   22.2690  -72.7986 C.2       4 UNK         0.5053 
     51 O         -75.6395   21.9525  -73.0921 O.2       4 UNK        -0.5105 
     52 CA        -77.9483   21.3534  -73.2360 C.3       4 UNK         0.0263 
     53 CB        -79.2359   21.5032  -72.3913 C.3       4 UNK        -0.1981 
     54 N         -78.2222   21.5225  -74.6672 N.am      4 UNK        -0.4224 
     55 C         -78.6536   22.6333  -75.2824 C.2       3 UNK         0.4895 
     56 O         -78.9457   23.6827  -74.6989 O.2       3 UNK        -0.5091 
     57 CA        -78.7800   22.5505  -76.8100 C.3       3 UNK         0.0250 
     58 CB        -79.7730   21.4552  -77.2467 C.3       3 UNK        -0.1996 
     59 N         -79.2350   23.8395  -77.3178 N.am      3 UNK        -0.4254 
     60 C         -78.9731   24.3611  -78.5214 C.2       2 UNK         0.5004 
     61 O         -78.2554   23.8122  -79.3582 O.2       2 UNK        -0.5226 
     62 CA        -79.6422   25.7065  -78.8671 C.3       2 UNK         0.0269 
     63 CB        -80.4852   25.5831  -80.1483 C.3       2 UNK        -0.1926 
     64 N         -80.5095   26.1828  -77.7849 N.am      2 UNK        -0.4687 
     65 C         -80.1528   27.0578  -76.8389 C.2       1 UNK         0.5165 
     66 O         -79.0672   27.6394  -76.8363 O.2       1 UNK        -0.5079 
     67 H67       -81.6379   23.9251  -73.5255 H         1 UNK         0.0900 
     68 H68       -81.9334   22.9015  -74.9296 H         1 UNK         0.0900 
     69 H69       -83.2905   23.6532  -74.0854 H         1 UNK         0.0900 
     70 H70       -80.8776   25.9525  -74.0862 H         1 UNK         0.2959 
     71 H71       -82.1057   27.5529  -76.1770 H         1 UNK         0.1079 
     72 H72       -80.5730   29.3432  -75.3049 H         1 UNK         0.0837 
     73 H73       -81.6678   28.6847  -74.1252 H         1 UNK         0.0837 
     74 H74       -79.5431   30.4462  -73.1696 H         1 UNK         0.0685 
     75 H75       -80.3194   29.5177  -71.9053 H         1 UNK         0.0685 
     76 H76       -78.7139   27.9235  -70.5184 H         1 UNK         0.1434 
     77 H77       -74.9178   29.6969  -69.6171 H         1 UNK         0.1329 
     78 H78       -77.3784   31.3409  -72.7260 H         1 UNK         0.1335 
     79 H79       -75.2086   32.2410  -72.4045 H         1 UNK         0.0680 
     80 H80       -75.0839   32.4999  -70.6801 H         1 UNK         0.0680 
     81 H81       -73.7421   30.4119  -73.7200 H         1 UNK         0.1032 
     82 H82       -74.1561   29.1437  -72.5962 H         1 UNK         0.1032 
     83 H83       -71.2767   29.9794  -73.1882 H         1 UNK         0.0461 
     84 H84       -71.8067   26.3396  -71.2885 H         1 UNK         0.3453 
     85 H85       -72.8061   26.6799  -72.6757 H         1 UNK         0.3453 
     86 H86       -73.0059   28.2637  -74.7679 H         1 UNK         0.2984 
     87 H87       -70.4381   27.6117  -77.1595 H         1 UNK         0.0554 
     88 H88       -70.6165   25.5379  -75.8465 H         1 UNK         0.0847 
     89 H89       -71.7379   25.4609  -77.1968 H         1 UNK         0.0847 
     90 H90       -72.3301   25.7995  -75.5693 H         1 UNK         0.0847 
     91 H91       -73.3915   27.7743  -76.7724 H         1 UNK         0.3141 
     92 H92       -73.7134   30.5308  -78.9348 H         1 UNK         0.0743 
     93 H93       -73.4043   28.8012  -80.7076 H         1 UNK         0.0784 
     94 H94       -74.3353   27.6434  -79.7683 H         1 UNK         0.0784 
     95 H95       -75.1085   29.0949  -80.4084 H         1 UNK         0.0784 
     96 H96       -75.5896   28.6063  -77.8671 H         1 UNK         0.3213 
     97 H97       -75.9208   30.0234  -74.6751 H         1 UNK         0.0855 
     98 H98       -77.2746   31.6563  -76.0169 H         1 UNK         0.0814 
     99 H99       -78.2805   30.4281  -75.2711 H         1 UNK         0.0814 
    100 H100      -77.9057   30.3320  -76.9893 H         1 UNK         0.0814 
    101 H101      -77.5579   28.1032  -75.8942 H         1 UNK         0.3105 
    102 H102      -77.3062   25.9458  -75.8446 H         1 UNK         0.0547 
    103 H103      -75.3032   25.3614  -77.2358 H         1 UNK         0.0837 
    104 H104      -74.4706   24.8062  -75.7899 H         1 UNK         0.0837 
    105 H105      -75.9268   23.9868  -76.3389 H         1 UNK         0.0837 
    106 H106      -77.4588   24.9701  -73.8993 H         1 UNK         0.3020 
    107 H107      -75.3019   23.9563  -71.3288 H         1 UNK         0.1245 
    108 H108      -77.4321   24.8584  -70.0551 H         1 UNK         0.0781 
    109 H109      -77.4213   26.1409  -71.2306 H         1 UNK         0.0781 
    110 H110      -75.9485   27.9970  -68.1059 H         1 UNK         0.0836 
    111 H111      -77.4340   27.1915  -68.5425 H         1 UNK         0.0836 
    112 H112      -78.0916   23.5740  -71.9666 H         1 UNK         0.3022 
    113 H113      -77.5931   20.3298  -73.1063 H         1 UNK         0.0747 
    114 H114      -79.9782   20.7600  -72.6824 H         1 UNK         0.0793 
    115 H115      -79.0276   21.3475  -71.3319 H         1 UNK         0.0793 
    116 H116      -79.7014   22.4833  -72.4943 H         1 UNK         0.0793 
    117 H117      -77.9843   20.7264  -75.2424 H         1 UNK         0.3047 
    118 H118      -77.7893   22.3313  -77.2138 H         1 UNK         0.0822 
    119 H119      -79.8696   21.4199  -78.3321 H         1 UNK         0.0807 
    120 H120      -80.7670   21.6251  -76.8313 H         1 UNK         0.0807 
    121 H121      -79.4480   20.4651  -76.9260 H         1 UNK         0.0807 
    122 H122      -79.7540   24.3916  -76.6481 H         1 UNK         0.2946 
    123 H123      -78.8409   26.4260  -79.0513 H         1 UNK         0.1144 
    124 H124      -80.9400   26.5369  -80.4160 H         1 UNK         0.0793 
    125 H125      -81.2846   24.8496  -80.0359 H         1 UNK         0.0793 
    126 H126      -79.8717   25.2709  -80.9947 H         1 UNK         0.0793 
    127 H127      -81.4069   25.7181  -77.6763 H         1 UNK         0.2896 
@<TRIPOS>BOND
     1    1    2 1    
     2    1   67 1    
     3    1   68 1    
     4    1   69 1    
     5    2    3 2    
     6    2    4 am   BACKBONE|DICT|INTERRES
     7    4    5 1    
     8    4   70 1    
     9    5    6 1    
    10    5   65 1    
    11    5   71 1    
    12    6    7 1    
    13    6   72 1    
    14    6   73 1    
    15    7    8 1    
    16    8    9 1    
    17    8   74 1    
    18    8   75 1    
    19    9   10 ar   
    20    9   14 ar   
    21   10   11 ar   
    22   10   76 1    
    23   11   12 ar   
    24   11   48 1    
    25   12   13 ar   
    26   12   77 1    
    27   13   14 ar   
    28   13   15 1    
    29   14   78 1    
    30   15   16 1    
    31   15   79 1    
    32   15   80 1    
    33   16   17 1    
    34   17   18 1    
    35   17   81 1    
    36   17   82 1    
    37   18   19 1    
    38   18   22 1    
    39   18   83 1    
    40   19   20 am   BACKBONE|DICT|INTERRES
    41   19   21 2    
    42   20   84 1    
    43   20   85 1    
    44   22   23 am   BACKBONE|DICT|INTERRES
    45   22   86 1    
    46   23   24 2    
    47   23   25 1    
    48   25   26 1    
    49   25   27 1    
    50   25   87 1    
    51   26   88 1    
    52   26   89 1    
    53   26   90 1    
    54   27   28 am   BACKBONE|DICT|INTERRES
    55   27   91 1    
    56   28   29 2    
    57   28   30 1    
    58   30   31 1    
    59   30   32 1    
    60   30   92 1    
    61   31   93 1    
    62   31   94 1    
    63   31   95 1    
    64   32   33 am   BACKBONE|DICT|INTERRES
    65   32   96 1    
    66   33   34 2    
    67   33   35 1    
    68   35   36 1    
    69   35   37 1    
    70   35   97 1    
    71   36   98 1    
    72   36   99 1    
    73   36  100 1    
    74   37   38 am   BACKBONE|DICT|INTERRES
    75   37  101 1    
    76   38   39 2    
    77   38   40 1    
    78   40   41 1    
    79   40   42 1    
    80   40  102 1    
    81   41  103 1    
    82   41  104 1    
    83   41  105 1    
    84   42   43 am   BACKBONE|DICT|INTERRES
    85   42  106 1    
    86   43   44 2    
    87   43   45 1    
    88   45   46 1    
    89   45   49 1    
    90   45  107 1    
    91   46   47 1    
    92   46  108 1    
    93   46  109 1    
    94   47   48 1    
    95   48  110 1    
    96   48  111 1    
    97   49   50 am   BACKBONE|DICT|INTERRES
    98   49  112 1    
    99   50   51 2    
   100   50   52 1    
   101   52   53 1    
   102   52   54 1    
   103   52  113 1    
   104   53  114 1    
   105   53  115 1    
   106   53  116 1    
   107   54   55 am   BACKBONE|DICT|INTERRES
   108   54  117 1    
   109   55   56 2    
   110   55   57 1    
   111   57   58 1    
   112   57   59 1    
   113   57  118 1    
   114   58  119 1    
   115   58  120 1    
   116   58  121 1    
   117   59   60 am   BACKBONE|DICT|INTERRES
   118   59  122 1    
   119   60   61 2    
   120   60   62 1    
   121   62   63 1    
   122   62   64 1    
   123   62  123 1    
   124   63  124 1    
   125   63  125 1    
   126   63  126 1    
   127   64   65 am   BACKBONE|DICT|INTERRES
   128   64  127 1    
   129   65   66 2    
@<TRIPOS>SUBSTRUCTURE
     1 UNK         1 GROUP             0       ****    0 ROOT    
