@<TRIPOS>MOLECULE
3R135
127   129    1
SMALL
USER_CHARGES


@<TRIPOS>ATOM
      1 CA        -81.6553   23.9316  -71.1895 C.3       0 UNK        -0.1998 
      2 C         -81.9046   25.2587  -71.8882 C.2       0 UNK         0.4909 
      3 O         -81.2008   25.5730  -72.8487 O.2       0 UNK        -0.5240 
      4 N         -82.9134   26.0113  -71.4182 N.am      1 UNK        -0.4739 
      5 CA        -83.3719   27.3697  -71.7854 C.3       1 UNK         0.0864 
      6 C6        -82.4577   28.5031  -71.2384 C.3       11 UNK        -0.0881 
      7 S7        -80.8479   28.6965  -72.0820 S.3       11 UNK        -0.2682 
      8 C8        -79.7146   28.0931  -70.7879 C.3       11 UNK         0.0289 
      9 C9        -78.2857   27.8650  -71.2731 C.ar      11 UNK        -0.0687 
     10 C10       -77.5633   26.7711  -70.7840 C.ar      11 UNK        -0.0823 
     11 C11       -76.2348   26.5631  -71.1666 C.ar      11 UNK        -0.0830 
     12 C12       -75.6261   27.4625  -72.0460 C.ar      11 UNK        -0.1021 
     13 C13       -76.3441   28.5374  -72.5716 C.ar      11 UNK        -0.0753 
     14 C14       -77.6664   28.7449  -72.1695 C.ar      11 UNK        -0.0933 
     15 C15       -75.6927   29.4593  -73.5883 C.3       11 UNK         0.0166 
     16 S16       -75.5717   28.6357  -75.2053 S.3       11 UNK        -0.2615 
     17 C17       -75.2565   30.0606  -76.2998 C.3       11 UNK        -0.0865 
     18 CA        -73.9988   29.8687  -77.1938 C.3       10 UNK         0.0862 
     19 C         -73.8924   30.9416  -78.3222 C.2       10 UNK         0.5551 
     20 N         -72.6984   31.3051  -78.7758 N.am      10 UNK        -0.7319 
     21 O         -74.9032   31.4327  -78.8193 O.2       10 UNK        -0.5018 
     22 N         -72.7524   29.6618  -76.4288 N.am      10 UNK        -0.4509 
     23 C         -72.1756   30.5570  -75.6133 C.2       10 UNK         0.4899 
     24 O         -72.6754   31.6485  -75.3350 O.2       10 UNK        -0.4839 
     25 CA        -70.7822   30.1968  -75.0577 C.3       9 UNK         0.0222 
     26 CB        -70.3140   31.1551  -73.9406 C.3       9 UNK        -0.1966 
     27 N         -70.6467   28.8001  -74.6308 N.am      9 UNK        -0.4218 
     28 C         -71.3111   28.1696  -73.6527 C.2       9 UNK         0.5020 
     29 O         -72.2056   28.6829  -72.9802 O.2       9 UNK        -0.5274 
     30 CA        -70.8810   26.7130  -73.3821 C.3       8 UNK         0.0270 
     31 CB        -71.6449   26.0684  -72.2112 C.3       8 UNK        -0.1976 
     32 N         -71.0283   25.8697  -74.5699 N.am      8 UNK        -0.4313 
     33 C         -70.1924   25.8446  -75.6162 C.2       8 UNK         0.5041 
     34 O         -69.1726   26.5323  -75.6883 O.2       8 UNK        -0.5577 
     35 CA        -70.5800   24.9352  -76.7930 C.3       7 UNK         0.0284 
     36 CB        -69.9680   23.5363  -76.6192 C.3       7 UNK        -0.1958 
     37 N         -72.0298   24.8137  -76.9665 N.am      7 UNK        -0.4454 
     38 C         -72.8472   25.8014  -77.3493 C.2       7 UNK         0.5089 
     39 O         -72.4554   26.9401  -77.6039 O.2       7 UNK        -0.5125 
     40 CA        -74.3485   25.4706  -77.4631 C.3       6 UNK         0.0408 
     41 CB        -74.6296   24.5768  -78.6854 C.3       6 UNK        -0.1791 
     42 N         -74.9614   24.9139  -76.2474 N.am      6 UNK        -0.4762 
     43 C         -74.6838   23.7710  -75.5981 C.2       6 UNK         0.5007 
     44 O         -73.8089   22.9745  -75.9408 O.2       6 UNK        -0.5032 
     45 CA        -75.5213   23.4731  -74.3390 C.3       5 UNK         0.0783 
     46 C46       -74.8819   24.1551  -73.1079 C.3       11 UNK        -0.0857 
     47 S47       -75.7951   23.8475  -71.5585 S.3       11 UNK        -0.2512 
     48 C48       -75.4586   25.3733  -70.6201 C.3       11 UNK         0.0225 
     49 N         -76.9314   23.8342  -74.5228 N.am      5 UNK        -0.4615 
     50 C         -77.7732   23.1655  -75.3222 C.2       4 UNK         0.5053 
     51 O         -77.4475   22.1774  -75.9815 O.2       4 UNK        -0.5105 
     52 CA        -79.2289   23.6541  -75.3926 C.3       4 UNK         0.0263 
     53 CB        -80.1086   22.8407  -74.4306 C.3       4 UNK        -0.1981 
     54 N         -79.4184   25.0821  -75.1242 N.am      4 UNK        -0.4224 
     55 C         -78.9551   26.0790  -75.8946 C.2       3 UNK         0.4895 
     56 O         -78.1812   25.9131  -76.8390 O.2       3 UNK        -0.5091 
     57 CA        -79.4947   27.4853  -75.5691 C.3       3 UNK         0.0250 
     58 CB        -79.1199   28.5480  -76.6247 C.3       3 UNK        -0.1996 
     59 N         -80.9445   27.4613  -75.3332 N.am      3 UNK        -0.4254 
     60 C         -81.9132   27.1048  -76.1972 C.2       2 UNK         0.5004 
     61 O         -81.7170   26.8649  -77.3894 O.2       2 UNK        -0.5226 
     62 CA        -83.3392   26.9543  -75.6295 C.3       2 UNK         0.0269 
     63 CB        -84.0762   25.7509  -76.2462 C.3       2 UNK        -0.1926 
     64 N         -83.2890   26.7769  -74.1796 N.am      2 UNK        -0.4687 
     65 C         -83.7710   27.6153  -73.2615 C.2       1 UNK         0.5165 
     66 O         -84.4972   28.5722  -73.5359 O.2       1 UNK        -0.5079 
     67 H67       -82.2388   23.8354  -70.2742 H         1 UNK         0.0900 
     68 H68       -80.6012   23.8404  -70.9287 H         1 UNK         0.0900 
     69 H69       -81.9169   23.1054  -71.8496 H         1 UNK         0.0900 
     70 H70       -83.4503   25.6136  -70.6597 H         1 UNK         0.2959 
     71 H71       -84.3171   27.4676  -71.2483 H         1 UNK         0.1079 
     72 H72       -82.9774   29.4604  -71.3114 H         1 UNK         0.0837 
     73 H73       -82.2937   28.3551  -70.1701 H         1 UNK         0.0837 
     74 H74       -79.6968   28.8123  -69.9683 H         1 UNK         0.0685 
     75 H75       -80.1191   27.1653  -70.3811 H         1 UNK         0.0685 
     76 H76       -78.0315   26.0812  -70.0951 H         1 UNK         0.1434 
     77 H77       -74.5975   27.3234  -72.3467 H         1 UNK         0.1329 
     78 H78       -78.2148   29.5905  -72.5606 H         1 UNK         0.1335 
     79 H79       -74.6967   29.7504  -73.2518 H         1 UNK         0.0680 
     80 H80       -76.2720   30.3786  -73.6869 H         1 UNK         0.0680 
     81 H81       -76.1477   30.1846  -76.9170 H         1 UNK         0.1032 
     82 H82       -75.1738   30.9790  -75.7176 H         1 UNK         0.1032 
     83 H83       -74.1529   28.9396  -77.7418 H         1 UNK         0.0461 
     84 H84       -72.6366   31.9908  -79.5118 H         1 UNK         0.3453 
     85 H85       -71.8617   30.8950  -78.3940 H         1 UNK         0.3453 
     86 H86       -72.2888   28.7795  -76.6141 H         1 UNK         0.2984 
     87 H87       -70.0921   30.3170  -75.8940 H         1 UNK         0.0554 
     88 H88       -69.3134   30.9008  -73.5912 H         1 UNK         0.0847 
     89 H89       -70.9855   31.1330  -73.0816 H         1 UNK         0.0847 
     90 H90       -70.2777   32.1853  -74.2970 H         1 UNK         0.0847 
     91 H91       -69.9568   28.2443  -75.1316 H         1 UNK         0.3141 
     92 H92       -69.8249   26.7410  -73.1045 H         1 UNK         0.0743 
     93 H93       -71.5268   26.6525  -71.2975 H         1 UNK         0.0784 
     94 H94       -72.7105   26.0008  -72.4185 H         1 UNK         0.0784 
     95 H95       -71.2783   25.0634  -72.0012 H         1 UNK         0.0784 
     96 H96       -71.8594   25.3005  -74.6226 H         1 UNK         0.3213 
     97 H97       -70.1686   25.3804  -77.7016 H         1 UNK         0.0855 
     98 H98       -70.1651   22.9070  -77.4873 H         1 UNK         0.0814 
     99 H99       -70.3641   23.0276  -75.7392 H         1 UNK         0.0814 
    100 H100      -68.8849   23.5958  -76.5028 H         1 UNK         0.0814 
    101 H101      -72.4631   23.9230  -76.7292 H         1 UNK         0.3105 
    102 H102      -74.8616   26.4186  -77.6335 H         1 UNK         0.0547 
    103 H103      -74.1740   23.5910  -78.5883 H         1 UNK         0.0837 
    104 H104      -75.7009   24.4364  -78.8303 H         1 UNK         0.0837 
    105 H105      -74.2359   25.0282  -79.5970 H         1 UNK         0.0837 
    106 H106      -75.7152   25.4756  -75.8732 H         1 UNK         0.3020 
    107 H107      -75.4780   22.3929  -74.1790 H         1 UNK         0.1245 
    108 H108      -74.8117   25.2273  -73.2821 H         1 UNK         0.0781 
    109 H109      -73.8597   23.7996  -72.9640 H         1 UNK         0.0781 
    110 H110      -75.7320   25.2096  -69.5766 H         1 UNK         0.0836 
    111 H111      -74.3867   25.5765  -70.6206 H         1 UNK         0.0836 
    112 H112      -77.2800   24.6140  -73.9846 H         1 UNK         0.3022 
    113 H113      -79.5797   23.4693  -76.4101 H         1 UNK         0.0747 
    114 H114      -80.0348   21.7725  -74.6397 H         1 UNK         0.0793 
    115 H115      -81.1593   23.1167  -74.5223 H         1 UNK         0.0793 
    116 H116      -79.8092   22.9918  -73.3929 H         1 UNK         0.0793 
    117 H117      -80.0333   25.3159  -74.3472 H         1 UNK         0.3047 
    118 H118      -79.0291   27.7772  -74.6265 H         1 UNK         0.0822 
    119 H119      -78.0404   28.6032  -76.7560 H         1 UNK         0.0807 
    120 H120      -79.4619   29.5390  -76.3271 H         1 UNK         0.0807 
    121 H121      -79.5454   28.3229  -77.6025 H         1 UNK         0.0807 
    122 H122      -81.2176   27.6106  -74.3693 H         1 UNK         0.2946 
    123 H123      -83.8808   27.8669  -75.8881 H         1 UNK         0.1144 
    124 H124      -85.0771   25.6437  -75.8278 H         1 UNK         0.0793 
    125 H125      -83.5380   24.8183  -76.0721 H         1 UNK         0.0793 
    126 H126      -84.1895   25.8682  -77.3247 H         1 UNK         0.0793 
    127 H127      -82.6400   26.0713  -73.8376 H         1 UNK         0.2896 
@<TRIPOS>BOND
     1    1    2 1    
     2    1   67 1    
     3    1   68 1    
     4    1   69 1    
     5    2    3 2    
     6    2    4 am   BACKBONE|DICT|INTERRES
     7    4    5 1    
     8    4   70 1    
     9    5    6 1    
    10    5   65 1    
    11    5   71 1    
    12    6    7 1    
    13    6   72 1    
    14    6   73 1    
    15    7    8 1    
    16    8    9 1    
    17    8   74 1    
    18    8   75 1    
    19    9   10 ar   
    20    9   14 ar   
    21   10   11 ar   
    22   10   76 1    
    23   11   12 ar   
    24   11   48 1    
    25   12   13 ar   
    26   12   77 1    
    27   13   14 ar   
    28   13   15 1    
    29   14   78 1    
    30   15   16 1    
    31   15   79 1    
    32   15   80 1    
    33   16   17 1    
    34   17   18 1    
    35   17   81 1    
    36   17   82 1    
    37   18   19 1    
    38   18   22 1    
    39   18   83 1    
    40   19   20 am   BACKBONE|DICT|INTERRES
    41   19   21 2    
    42   20   84 1    
    43   20   85 1    
    44   22   23 am   BACKBONE|DICT|INTERRES
    45   22   86 1    
    46   23   24 2    
    47   23   25 1    
    48   25   26 1    
    49   25   27 1    
    50   25   87 1    
    51   26   88 1    
    52   26   89 1    
    53   26   90 1    
    54   27   28 am   BACKBONE|DICT|INTERRES
    55   27   91 1    
    56   28   29 2    
    57   28   30 1    
    58   30   31 1    
    59   30   32 1    
    60   30   92 1    
    61   31   93 1    
    62   31   94 1    
    63   31   95 1    
    64   32   33 am   BACKBONE|DICT|INTERRES
    65   32   96 1    
    66   33   34 2    
    67   33   35 1    
    68   35   36 1    
    69   35   37 1    
    70   35   97 1    
    71   36   98 1    
    72   36   99 1    
    73   36  100 1    
    74   37   38 am   BACKBONE|DICT|INTERRES
    75   37  101 1    
    76   38   39 2    
    77   38   40 1    
    78   40   41 1    
    79   40   42 1    
    80   40  102 1    
    81   41  103 1    
    82   41  104 1    
    83   41  105 1    
    84   42   43 am   BACKBONE|DICT|INTERRES
    85   42  106 1    
    86   43   44 2    
    87   43   45 1    
    88   45   46 1    
    89   45   49 1    
    90   45  107 1    
    91   46   47 1    
    92   46  108 1    
    93   46  109 1    
    94   47   48 1    
    95   48  110 1    
    96   48  111 1    
    97   49   50 am   BACKBONE|DICT|INTERRES
    98   49  112 1    
    99   50   51 2    
   100   50   52 1    
   101   52   53 1    
   102   52   54 1    
   103   52  113 1    
   104   53  114 1    
   105   53  115 1    
   106   53  116 1    
   107   54   55 am   BACKBONE|DICT|INTERRES
   108   54  117 1    
   109   55   56 2    
   110   55   57 1    
   111   57   58 1    
   112   57   59 1    
   113   57  118 1    
   114   58  119 1    
   115   58  120 1    
   116   58  121 1    
   117   59   60 am   BACKBONE|DICT|INTERRES
   118   59  122 1    
   119   60   61 2    
   120   60   62 1    
   121   62   63 1    
   122   62   64 1    
   123   62  123 1    
   124   63  124 1    
   125   63  125 1    
   126   63  126 1    
   127   64   65 am   BACKBONE|DICT|INTERRES
   128   64  127 1    
   129   65   66 2    
@<TRIPOS>SUBSTRUCTURE
     1 UNK         1 GROUP             0       ****    0 ROOT    
