@<TRIPOS>MOLECULE
3R135
127   129    1
SMALL
USER_CHARGES


@<TRIPOS>ATOM
      1 CA        -83.1066   26.6449  -76.6987 C.3       0 UNK        -0.1998 
      2 C         -81.9594   27.5440  -76.2655 C.2       0 UNK         0.4909 
      3 O         -81.1387   27.9355  -77.0959 O.2       0 UNK        -0.5240 
      4 N         -81.8826   27.8684  -74.9690 N.am      1 UNK        -0.4739 
      5 CA        -80.8105   28.6698  -74.3712 C.3       1 UNK         0.0864 
      6 C6        -81.1580   29.1252  -72.9320 C.3       11 UNK        -0.0881 
      7 S7        -81.6047   27.7707  -71.7852 S.3       11 UNK        -0.2682 
      8 C8        -80.8035   28.3048  -70.2405 C.3       11 UNK         0.0289 
      9 C9        -79.2859   28.1969  -70.3012 C.ar      11 UNK        -0.0687 
     10 C10       -78.6596   26.9609  -70.1157 C.ar      11 UNK        -0.0823 
     11 C11       -77.2640   26.8618  -70.1232 C.ar      11 UNK        -0.0830 
     12 C12       -76.4963   28.0148  -70.3178 C.ar      11 UNK        -0.1021 
     13 C13       -77.1116   29.2503  -70.5394 C.ar      11 UNK        -0.0753 
     14 C14       -78.5057   29.3366  -70.5156 C.ar      11 UNK        -0.0933 
     15 C15       -76.2809   30.4974  -70.7992 C.3       11 UNK         0.0166 
     16 S16       -75.9527   30.7238  -72.5781 S.3       11 UNK        -0.2615 
     17 C17       -74.4456   29.7181  -72.8021 C.3       11 UNK        -0.0865 
     18 CA        -73.1537   30.5714  -72.9097 C.3       10 UNK         0.0862 
     19 C         -72.7718   31.2442  -71.5654 C.2       10 UNK         0.5551 
     20 N         -73.0897   32.5187  -71.3894 N.am      10 UNK        -0.7319 
     21 O         -72.2079   30.6100  -70.6752 O.2       10 UNK        -0.5018 
     22 N         -72.0262   29.7451  -73.3489 N.am      10 UNK        -0.4509 
     23 C         -71.5995   29.4936  -74.5893 C.2       10 UNK         0.4899 
     24 O         -70.6281   28.7627  -74.7929 O.2       10 UNK        -0.4839 
     25 CA        -72.3082   30.1274  -75.8000 C.3       9 UNK         0.0222 
     26 CB        -71.7308   31.5244  -76.1051 C.3       9 UNK        -0.1966 
     27 N         -72.0848   29.2258  -76.9233 N.am      9 UNK        -0.4218 
     28 C         -72.6595   29.2430  -78.1308 C.2       9 UNK         0.5020 
     29 O         -73.4575   30.1005  -78.5101 O.2       9 UNK        -0.5274 
     30 CA        -72.2897   28.0723  -79.0618 C.3       8 UNK         0.0270 
     31 CB        -70.9821   28.3664  -79.8156 C.3       8 UNK        -0.1976 
     32 N         -72.1616   26.8125  -78.3176 N.am      8 UNK        -0.4313 
     33 C         -73.2090   26.1492  -77.8105 C.2       8 UNK         0.5041 
     34 O         -74.3796   26.4328  -78.0701 O.2       8 UNK        -0.5577 
     35 CA        -72.8920   25.0167  -76.8243 C.3       7 UNK         0.0284 
     36 CB        -72.4282   25.5859  -75.4706 C.3       7 UNK        -0.1958 
     37 N         -74.0898   24.2105  -76.6028 N.am      7 UNK        -0.4454 
     38 C         -74.1219   22.8760  -76.5175 C.2       7 UNK         0.5089 
     39 O         -73.1203   22.1604  -76.5867 O.2       7 UNK        -0.5125 
     40 CA        -75.5127   22.2445  -76.3246 C.3       6 UNK         0.0408 
     41 CB        -75.4748   20.7165  -76.1099 C.3       6 UNK        -0.1791 
     42 N         -76.2788   22.9169  -75.2725 N.am      6 UNK        -0.4762 
     43 C         -76.0415   22.9528  -73.9516 C.2       6 UNK         0.5007 
     44 O         -75.1335   22.3321  -73.3981 O.2       6 UNK        -0.5032 
     45 CA        -76.9937   23.8307  -73.1013 C.3       5 UNK         0.0783 
     46 C46       -76.3352   25.1838  -72.7253 C.3       11 UNK        -0.0857 
     47 S47       -75.3517   25.1026  -71.1932 S.3       11 UNK        -0.2512 
     48 C48       -76.5946   25.5065  -69.9164 C.3       11 UNK         0.0225 
     49 N         -78.2871   24.0597  -73.7552 N.am      5 UNK        -0.4615 
     50 C         -79.2179   23.1296  -74.0067 C.2       4 UNK         0.5053 
     51 O         -79.1600   21.9707  -73.5966 O.2       4 UNK        -0.5105 
     52 CA        -80.3818   23.5590  -74.9161 C.3       4 UNK         0.0263 
     53 CB        -81.5315   24.1646  -74.0944 C.3       4 UNK        -0.1981 
     54 N         -79.9327   24.5131  -75.9369 N.am      4 UNK        -0.4224 
     55 C         -79.2579   24.1644  -77.0441 C.2       3 UNK         0.4895 
     56 O         -79.0513   22.9974  -77.3752 O.2       3 UNK        -0.5091 
     57 CA        -78.6805   25.2933  -77.9174 C.3       3 UNK         0.0250 
     58 CB        -79.6316   25.6240  -79.0783 C.3       3 UNK        -0.1996 
     59 N         -78.3702   26.5093  -77.1589 N.am      3 UNK        -0.4254 
     60 C         -77.3371   26.6104  -76.3064 C.2       2 UNK         0.5004 
     61 O         -76.5458   25.6938  -76.0948 O.2       2 UNK        -0.5226 
     62 CA        -77.1994   27.9145  -75.4954 C.3       2 UNK         0.0269 
     63 CB        -76.3093   28.9231  -76.2379 C.3       2 UNK        -0.1926 
     64 N         -78.4849   28.5391  -75.1637 N.am      2 UNK        -0.4687 
     65 C         -79.4595   27.9297  -74.4739 C.2       1 UNK         0.5165 
     66 O         -79.3447   26.7916  -74.0137 O.2       1 UNK        -0.5079 
     67 H67       -83.7820   26.4207  -75.8733 H         1 UNK         0.0900 
     68 H68       -83.6835   27.1277  -77.4870 H         1 UNK         0.0900 
     69 H69       -82.7192   25.7035  -77.0873 H         1 UNK         0.0900 
     70 H70       -82.5550   27.4971  -74.3126 H         1 UNK         0.2959 
     71 H71       -80.7309   29.5779  -74.9733 H         1 UNK         0.1079 
     72 H72       -82.0071   29.8094  -72.9689 H         1 UNK         0.0837 
     73 H73       -80.3366   29.7135  -72.5248 H         1 UNK         0.0837 
     74 H74       -81.1754   27.6855  -69.4230 H         1 UNK         0.0685 
     75 H75       -81.1100   29.3261  -70.0089 H         1 UNK         0.0685 
     76 H76       -79.2646   26.0780  -69.9607 H         1 UNK         0.1434 
     77 H77       -75.4183   27.9414  -70.3117 H         1 UNK         0.1329 
     78 H78       -78.9825   30.2956  -70.6644 H         1 UNK         0.1335 
     79 H79       -75.3446   30.4559  -70.2410 H         1 UNK         0.0680 
     80 H80       -76.8106   31.3769  -70.4299 H         1 UNK         0.0680 
     81 H81       -74.3520   28.9792  -72.0067 H         1 UNK         0.1032 
     82 H82       -74.5847   29.1386  -73.7152 H         1 UNK         0.1032 
     83 H83       -73.3198   31.3668  -73.6369 H         1 UNK         0.0461 
     84 H84       -72.8536   32.9674  -70.5183 H         1 UNK         0.3453 
     85 H85       -73.5762   33.0373  -72.1039 H         1 UNK         0.3453 
     86 H86       -71.4983   29.3590  -72.5774 H         1 UNK         0.2984 
     87 H87       -73.3823   30.1889  -75.6209 H         1 UNK         0.0554 
     88 H88       -71.8278   32.1928  -75.2495 H         1 UNK         0.0847 
     89 H89       -72.2475   31.9978  -76.9398 H         1 UNK         0.0847 
     90 H90       -70.6705   31.4728  -76.3558 H         1 UNK         0.0847 
     91 H91       -71.4285   28.4869  -76.7024 H         1 UNK         0.3141 
     92 H92       -73.0896   27.9638  -79.7978 H         1 UNK         0.0743 
     93 H93       -71.0643   29.2911  -80.3887 H         1 UNK         0.0784 
     94 H94       -70.1359   28.4787  -79.1365 H         1 UNK         0.0784 
     95 H95       -70.7438   27.5702  -80.5211 H         1 UNK         0.0784 
     96 H96       -71.2265   26.5013  -78.0949 H         1 UNK         0.3213 
     97 H97       -72.0985   24.4038  -77.2575 H         1 UNK         0.0855 
     98 H98       -73.1764   26.2516  -75.0374 H         1 UNK         0.0814 
     99 H99       -71.5028   26.1532  -75.5725 H         1 UNK         0.0814 
    100 H100      -72.2377   24.7889  -74.7514 H         1 UNK         0.0814 
    101 H101      -74.9617   24.7398  -76.5705 H         1 UNK         0.3105 
    102 H102      -76.0584   22.4273  -77.2515 H         1 UNK         0.0547 
    103 H103      -76.4781   20.3091  -75.9865 H         1 UNK         0.0837 
    104 H104      -74.8891   20.4409  -75.2327 H         1 UNK         0.0837 
    105 H105      -75.0248   20.2157  -76.9677 H         1 UNK         0.0837 
    106 H106      -77.0048   23.5367  -75.6078 H         1 UNK         0.3020 
    107 H107      -77.2053   23.2716  -72.1872 H         1 UNK         0.1245 
    108 H108      -77.0926   25.9588  -72.6032 H         1 UNK         0.0781 
    109 H109      -75.6902   25.5499  -73.5265 H         1 UNK         0.0781 
    110 H110      -76.1088   25.5013  -68.9400 H         1 UNK         0.0836 
    111 H111      -77.3377   24.7079  -69.8931 H         1 UNK         0.0836 
    112 H112      -78.4769   25.0127  -74.0495 H         1 UNK         0.3022 
    113 H113      -80.7617   22.6649  -75.4153 H         1 UNK         0.0747 
    114 H114      -82.3765   24.4291  -74.7292 H         1 UNK         0.0793 
    115 H115      -81.8958   23.4501  -73.3550 H         1 UNK         0.0793 
    116 H116      -81.2240   25.0589  -73.5523 H         1 UNK         0.0793 
    117 H117      -79.9999   25.4937  -75.6975 H         1 UNK         0.3047 
    118 H118      -77.7465   24.9247  -78.3485 H         1 UNK         0.0822 
    119 H119      -79.2252   26.4107  -79.7141 H         1 UNK         0.0807 
    120 H120      -80.6102   25.9481  -78.7257 H         1 UNK         0.0807 
    121 H121      -79.7907   24.7483  -79.7091 H         1 UNK         0.0807 
    122 H122      -79.0203   27.2823  -77.2448 H         1 UNK         0.2946 
    123 H123      -76.7108   27.6597  -74.5527 H         1 UNK         0.1144 
    124 H124      -75.3274   28.4948  -76.4440 H         1 UNK         0.0793 
    125 H125      -76.1502   29.8268  -75.6497 H         1 UNK         0.0793 
    126 H126      -76.7411   29.2162  -77.1956 H         1 UNK         0.0793 
    127 H127      -78.6499   29.4612  -75.5413 H         1 UNK         0.2896 
@<TRIPOS>BOND
     1    1    2 1    
     2    1   67 1    
     3    1   68 1    
     4    1   69 1    
     5    2    3 2    
     6    2    4 am   BACKBONE|DICT|INTERRES
     7    4    5 1    
     8    4   70 1    
     9    5    6 1    
    10    5   65 1    
    11    5   71 1    
    12    6    7 1    
    13    6   72 1    
    14    6   73 1    
    15    7    8 1    
    16    8    9 1    
    17    8   74 1    
    18    8   75 1    
    19    9   10 ar   
    20    9   14 ar   
    21   10   11 ar   
    22   10   76 1    
    23   11   12 ar   
    24   11   48 1    
    25   12   13 ar   
    26   12   77 1    
    27   13   14 ar   
    28   13   15 1    
    29   14   78 1    
    30   15   16 1    
    31   15   79 1    
    32   15   80 1    
    33   16   17 1    
    34   17   18 1    
    35   17   81 1    
    36   17   82 1    
    37   18   19 1    
    38   18   22 1    
    39   18   83 1    
    40   19   20 am   BACKBONE|DICT|INTERRES
    41   19   21 2    
    42   20   84 1    
    43   20   85 1    
    44   22   23 am   BACKBONE|DICT|INTERRES
    45   22   86 1    
    46   23   24 2    
    47   23   25 1    
    48   25   26 1    
    49   25   27 1    
    50   25   87 1    
    51   26   88 1    
    52   26   89 1    
    53   26   90 1    
    54   27   28 am   BACKBONE|DICT|INTERRES
    55   27   91 1    
    56   28   29 2    
    57   28   30 1    
    58   30   31 1    
    59   30   32 1    
    60   30   92 1    
    61   31   93 1    
    62   31   94 1    
    63   31   95 1    
    64   32   33 am   BACKBONE|DICT|INTERRES
    65   32   96 1    
    66   33   34 2    
    67   33   35 1    
    68   35   36 1    
    69   35   37 1    
    70   35   97 1    
    71   36   98 1    
    72   36   99 1    
    73   36  100 1    
    74   37   38 am   BACKBONE|DICT|INTERRES
    75   37  101 1    
    76   38   39 2    
    77   38   40 1    
    78   40   41 1    
    79   40   42 1    
    80   40  102 1    
    81   41  103 1    
    82   41  104 1    
    83   41  105 1    
    84   42   43 am   BACKBONE|DICT|INTERRES
    85   42  106 1    
    86   43   44 2    
    87   43   45 1    
    88   45   46 1    
    89   45   49 1    
    90   45  107 1    
    91   46   47 1    
    92   46  108 1    
    93   46  109 1    
    94   47   48 1    
    95   48  110 1    
    96   48  111 1    
    97   49   50 am   BACKBONE|DICT|INTERRES
    98   49  112 1    
    99   50   51 2    
   100   50   52 1    
   101   52   53 1    
   102   52   54 1    
   103   52  113 1    
   104   53  114 1    
   105   53  115 1    
   106   53  116 1    
   107   54   55 am   BACKBONE|DICT|INTERRES
   108   54  117 1    
   109   55   56 2    
   110   55   57 1    
   111   57   58 1    
   112   57   59 1    
   113   57  118 1    
   114   58  119 1    
   115   58  120 1    
   116   58  121 1    
   117   59   60 am   BACKBONE|DICT|INTERRES
   118   59  122 1    
   119   60   61 2    
   120   60   62 1    
   121   62   63 1    
   122   62   64 1    
   123   62  123 1    
   124   63  124 1    
   125   63  125 1    
   126   63  126 1    
   127   64   65 am   BACKBONE|DICT|INTERRES
   128   64  127 1    
   129   65   66 2    
@<TRIPOS>SUBSTRUCTURE
     1 UNK         1 GROUP             0       ****    0 ROOT    
