@<TRIPOS>MOLECULE
3R135
127   129    1
SMALL
USER_CHARGES


@<TRIPOS>ATOM
      1 CA        -85.1072   27.9165  -72.7122 C.3       0 UNK        -0.1998 
      2 C         -83.9619   26.9148  -72.6987 C.2       0 UNK         0.4909 
      3 O         -84.2062   25.7125  -72.5934 O.2       0 UNK        -0.5240 
      4 N         -82.7173   27.4055  -72.8038 N.am      1 UNK        -0.4739 
      5 CA        -81.4768   26.6143  -72.8306 C.3       1 UNK         0.0864 
      6 C6        -81.2093   25.8731  -71.4871 C.3       11 UNK        -0.0881 
      7 S7        -79.4459   25.8571  -71.0083 S.3       11 UNK        -0.2682 
      8 C8        -79.2861   27.3585  -69.9831 C.3       11 UNK         0.0289 
      9 C9        -78.3377   28.3546  -70.6331 C.ar      11 UNK        -0.0687 
     10 C10       -78.7828   29.1485  -71.6922 C.ar      11 UNK        -0.0823 
     11 C11       -77.9014   29.9964  -72.3653 C.ar      11 UNK        -0.0830 
     12 C12       -76.5830   30.1109  -71.9206 C.ar      11 UNK        -0.1021 
     13 C13       -76.1342   29.3535  -70.8356 C.ar      11 UNK        -0.0753 
     14 C14       -77.0109   28.4659  -70.2019 C.ar      11 UNK        -0.0933 
     15 C15       -74.6920   29.4842  -70.3783 C.3       11 UNK         0.0166 
     16 S16       -73.6150   28.4132  -71.3718 S.3       11 UNK        -0.2615 
     17 C17       -71.9975   29.2299  -71.1499 C.3       11 UNK        -0.0865 
     18 CA        -71.6469   30.2221  -72.2937 C.3       10 UNK         0.0862 
     19 C         -70.2404   30.8414  -72.0472 C.2       10 UNK         0.5551 
     20 N         -69.2145   30.4777  -72.8073 N.am      10 UNK        -0.7319 
     21 O         -70.0816   31.6619  -71.1469 O.2       10 UNK        -0.5018 
     22 N         -71.8367   29.6055  -73.6159 N.am      10 UNK        -0.4509 
     23 C         -71.7890   30.2169  -74.8063 C.2       10 UNK         0.4899 
     24 O         -71.5972   31.4256  -74.9421 O.2       10 UNK        -0.4839 
     25 CA        -72.0219   29.3471  -76.0623 C.3       9 UNK         0.0222 
     26 CB        -70.9410   29.5832  -77.1374 C.3       9 UNK        -0.1966 
     27 N         -72.1987   27.9117  -75.7901 N.am      9 UNK        -0.4218 
     28 C         -71.2984   27.0482  -75.2928 C.2       9 UNK         0.5020 
     29 O         -70.1293   27.3395  -75.0386 O.2       9 UNK        -0.5274 
     30 CA        -71.8028   25.6379  -74.9586 C.3       8 UNK         0.0270 
     31 CB        -72.4811   25.6293  -73.5802 C.3       8 UNK        -0.1976 
     32 N         -72.7315   25.1187  -75.9627 N.am      8 UNK        -0.4313 
     33 C         -72.3437   24.5213  -77.0970 C.2       8 UNK         0.5041 
     34 O         -71.1658   24.3638  -77.4221 O.2       8 UNK        -0.5577 
     35 CA        -73.4511   23.9850  -78.0176 C.3       7 UNK         0.0284 
     36 CB        -73.8386   22.5547  -77.6086 C.3       7 UNK        -0.1958 
     37 N         -74.6451   24.8336  -78.0388 N.am      7 UNK        -0.4454 
     38 C         -74.6978   26.0275  -78.6454 C.2       7 UNK         0.5089 
     39 O         -73.7469   26.5360  -79.2401 O.2       7 UNK        -0.5125 
     40 CA        -76.0330   26.7885  -78.5867 C.3       6 UNK         0.0408 
     41 CB        -77.0053   26.2521  -79.6485 C.3       6 UNK        -0.1791 
     42 N         -76.6903   26.7774  -77.2778 N.am      6 UNK        -0.4762 
     43 C         -76.1629   27.2460  -76.1359 C.2       6 UNK         0.5007 
     44 O         -74.9933   27.6104  -76.0116 O.2       6 UNK        -0.5032 
     45 CA        -77.1102   27.2809  -74.9218 C.3       5 UNK         0.0783 
     46 C46       -78.2484   28.3222  -75.1067 C.3       11 UNK        -0.0857 
     47 S47       -77.6485   30.0511  -75.1219 S.3       11 UNK        -0.2512 
     48 C48       -78.3632   30.7545  -73.5988 C.3       11 UNK         0.0225 
     49 N         -77.6209   25.9268  -74.6908 N.am      5 UNK        -0.4615 
     50 C         -76.8881   24.9406  -74.1506 C.2       4 UNK         0.5053 
     51 O         -75.7899   25.1201  -73.6276 O.2       4 UNK        -0.5105 
     52 CA        -77.4229   23.5007  -74.2559 C.3       4 UNK         0.0263 
     53 CB        -78.0402   23.0248  -72.9325 C.3       4 UNK        -0.1981 
     54 N         -78.3820   23.3183  -75.3474 N.am      4 UNK        -0.4224 
     55 C         -78.0363   23.2820  -76.6430 C.2       3 UNK         0.4895 
     56 O         -76.8775   23.3835  -77.0425 O.2       3 UNK        -0.5091 
     57 CA        -79.1691   23.1589  -77.6761 C.3       3 UNK         0.0250 
     58 CB        -79.4778   21.6808  -77.9603 C.3       3 UNK        -0.1996 
     59 N         -80.4003   23.8515  -77.2887 N.am      3 UNK        -0.4254 
     60 C         -80.4957   25.1614  -77.0219 C.2       2 UNK         0.5004 
     61 O         -79.5405   25.9388  -77.0819 O.2       2 UNK        -0.5226 
     62 CA        -81.8686   25.6977  -76.5736 C.3       2 UNK         0.0269 
     63 CB        -83.0101   24.6560  -76.6290 C.3       2 UNK        -0.1926 
     64 N         -81.8075   26.3048  -75.2383 N.am      2 UNK        -0.4687 
     65 C         -81.3778   25.7333  -74.0998 C.2       1 UNK         0.5165 
     66 O         -80.9321   24.5859  -74.0392 O.2       1 UNK        -0.5079 
     67 H67       -85.7565   27.7311  -73.5679 H         1 UNK         0.0900 
     68 H68       -85.7030   27.8177  -71.8045 H         1 UNK         0.0900 
     69 H69       -84.7506   28.9453  -72.7724 H         1 UNK         0.0900 
     70 H70       -82.5967   28.4062  -72.8843 H         1 UNK         0.2959 
     71 H71       -80.6852   27.3464  -72.9642 H         1 UNK         0.1079 
     72 H72       -81.7713   26.3368  -70.6753 H         1 UNK         0.0837 
     73 H73       -81.5761   24.8456  -71.5233 H         1 UNK         0.0837 
     74 H74       -80.2569   27.8285  -69.8216 H         1 UNK         0.0685 
     75 H75       -78.9191   27.0724  -68.9963 H         1 UNK         0.0685 
     76 H76       -79.8100   29.0825  -72.0153 H         1 UNK         0.1434 
     77 H77       -75.8974   30.7685  -72.4379 H         1 UNK         0.1329 
     78 H78       -76.6567   27.8547  -69.3830 H         1 UNK         0.1335 
     79 H79       -74.5935   29.2238  -69.3234 H         1 UNK         0.0680 
     80 H80       -74.3725   30.5232  -70.4752 H         1 UNK         0.0680 
     81 H81       -71.2409   28.4451  -71.0890 H         1 UNK         0.1032 
     82 H82       -71.9793   29.7352  -70.1820 H         1 UNK         0.1032 
     83 H83       -72.3564   31.0497  -72.2396 H         1 UNK         0.0461 
     84 H84       -68.3065   30.8828  -72.6438 H         1 UNK         0.3453 
     85 H85       -69.3435   29.7993  -73.5422 H         1 UNK         0.3453 
     86 H86       -72.0217   28.6148  -73.6054 H         1 UNK         0.2984 
     87 H87       -72.9737   29.6799  -76.4789 H         1 UNK         0.0554 
     88 H88       -69.9431   29.3372  -76.7739 H         1 UNK         0.0847 
     89 H89       -70.9214   30.6282  -77.4490 H         1 UNK         0.0847 
     90 H90       -71.1318   28.9846  -78.0282 H         1 UNK         0.0847 
     91 H91       -73.1576   27.5880  -75.9145 H         1 UNK         0.3141 
     92 H92       -70.9340   24.9779  -74.9046 H         1 UNK         0.0743 
     93 H93       -71.7997   25.9816  -72.8046 H         1 UNK         0.0784 
     94 H94       -73.3607   26.2740  -73.5593 H         1 UNK         0.0784 
     95 H95       -72.7995   24.6252  -73.2997 H         1 UNK         0.0784 
     96 H96       -73.7200   25.2242  -75.7803 H         1 UNK         0.3213 
     97 H97       -73.0458   23.9458  -79.0313 H         1 UNK         0.0855 
     98 H98       -74.2595   22.5218  -76.6028 H         1 UNK         0.0814 
     99 H99       -72.9696   21.8955  -77.6210 H         1 UNK         0.0814 
    100 H100      -74.5754   22.1326  -78.2924 H         1 UNK         0.0814 
    101 H101      -75.4880   24.4541  -77.6094 H         1 UNK         0.3105 
    102 H102      -75.8216   27.8332  -78.8235 H         1 UNK         0.0547 
    103 H103      -77.9308   26.8278  -79.6693 H         1 UNK         0.0837 
    104 H104      -77.2634   25.2090  -79.4662 H         1 UNK         0.0837 
    105 H105      -76.5653   26.3092  -80.6450 H         1 UNK         0.0837 
    106 H106      -77.6604   26.4729  -77.2642 H         1 UNK         0.3020 
    107 H107      -76.5235   27.5780  -74.0479 H         1 UNK         0.1245 
    108 H108      -78.9837   28.2074  -74.3131 H         1 UNK         0.0781 
    109 H109      -78.7971   28.1535  -76.0335 H         1 UNK         0.0781 
    110 H110      -79.4515   30.7523  -73.6775 H         1 UNK         0.0836 
    111 H111      -78.0644   31.8004  -73.5154 H         1 UNK         0.0836 
    112 H112      -78.4851   25.6863  -75.1582 H         1 UNK         0.3022 
    113 H113      -76.5594   22.8628  -74.4584 H         1 UNK         0.0747 
    114 H114      -78.2638   21.9585  -72.9625 H         1 UNK         0.0793 
    115 H115      -77.3566   23.1900  -72.0986 H         1 UNK         0.0793 
    116 H116      -78.9650   23.5511  -72.7038 H         1 UNK         0.0793 
    117 H117      -79.3630   23.3008  -75.0946 H         1 UNK         0.3047 
    118 H118      -78.8170   23.6158  -78.6024 H         1 UNK         0.0822 
    119 H119      -80.2086   21.5741  -78.7623 H         1 UNK         0.0807 
    120 H120      -79.8686   21.1718  -77.0782 H         1 UNK         0.0807 
    121 H121      -78.5781   21.1480  -78.2721 H         1 UNK         0.0807 
    122 H122      -81.2300   23.2842  -77.1929 H         1 UNK         0.2946 
    123 H123      -82.1159   26.4981  -77.2731 H         1 UNK         0.1144 
    124 H124      -82.8462   23.8248  -75.9419 H         1 UNK         0.0793 
    125 H125      -83.1274   24.2461  -77.6332 H         1 UNK         0.0793 
    126 H126      -83.9636   25.1124  -76.3624 H         1 UNK         0.0793 
    127 H127      -82.1402   27.2572  -75.1828 H         1 UNK         0.2896 
@<TRIPOS>BOND
     1    1    2 1    
     2    1   67 1    
     3    1   68 1    
     4    1   69 1    
     5    2    3 2    
     6    2    4 am   BACKBONE|DICT|INTERRES
     7    4    5 1    
     8    4   70 1    
     9    5    6 1    
    10    5   65 1    
    11    5   71 1    
    12    6    7 1    
    13    6   72 1    
    14    6   73 1    
    15    7    8 1    
    16    8    9 1    
    17    8   74 1    
    18    8   75 1    
    19    9   10 ar   
    20    9   14 ar   
    21   10   11 ar   
    22   10   76 1    
    23   11   12 ar   
    24   11   48 1    
    25   12   13 ar   
    26   12   77 1    
    27   13   14 ar   
    28   13   15 1    
    29   14   78 1    
    30   15   16 1    
    31   15   79 1    
    32   15   80 1    
    33   16   17 1    
    34   17   18 1    
    35   17   81 1    
    36   17   82 1    
    37   18   19 1    
    38   18   22 1    
    39   18   83 1    
    40   19   20 am   BACKBONE|DICT|INTERRES
    41   19   21 2    
    42   20   84 1    
    43   20   85 1    
    44   22   23 am   BACKBONE|DICT|INTERRES
    45   22   86 1    
    46   23   24 2    
    47   23   25 1    
    48   25   26 1    
    49   25   27 1    
    50   25   87 1    
    51   26   88 1    
    52   26   89 1    
    53   26   90 1    
    54   27   28 am   BACKBONE|DICT|INTERRES
    55   27   91 1    
    56   28   29 2    
    57   28   30 1    
    58   30   31 1    
    59   30   32 1    
    60   30   92 1    
    61   31   93 1    
    62   31   94 1    
    63   31   95 1    
    64   32   33 am   BACKBONE|DICT|INTERRES
    65   32   96 1    
    66   33   34 2    
    67   33   35 1    
    68   35   36 1    
    69   35   37 1    
    70   35   97 1    
    71   36   98 1    
    72   36   99 1    
    73   36  100 1    
    74   37   38 am   BACKBONE|DICT|INTERRES
    75   37  101 1    
    76   38   39 2    
    77   38   40 1    
    78   40   41 1    
    79   40   42 1    
    80   40  102 1    
    81   41  103 1    
    82   41  104 1    
    83   41  105 1    
    84   42   43 am   BACKBONE|DICT|INTERRES
    85   42  106 1    
    86   43   44 2    
    87   43   45 1    
    88   45   46 1    
    89   45   49 1    
    90   45  107 1    
    91   46   47 1    
    92   46  108 1    
    93   46  109 1    
    94   47   48 1    
    95   48  110 1    
    96   48  111 1    
    97   49   50 am   BACKBONE|DICT|INTERRES
    98   49  112 1    
    99   50   51 2    
   100   50   52 1    
   101   52   53 1    
   102   52   54 1    
   103   52  113 1    
   104   53  114 1    
   105   53  115 1    
   106   53  116 1    
   107   54   55 am   BACKBONE|DICT|INTERRES
   108   54  117 1    
   109   55   56 2    
   110   55   57 1    
   111   57   58 1    
   112   57   59 1    
   113   57  118 1    
   114   58  119 1    
   115   58  120 1    
   116   58  121 1    
   117   59   60 am   BACKBONE|DICT|INTERRES
   118   59  122 1    
   119   60   61 2    
   120   60   62 1    
   121   62   63 1    
   122   62   64 1    
   123   62  123 1    
   124   63  124 1    
   125   63  125 1    
   126   63  126 1    
   127   64   65 am   BACKBONE|DICT|INTERRES
   128   64  127 1    
   129   65   66 2    
@<TRIPOS>SUBSTRUCTURE
     1 UNK         1 GROUP             0       ****    0 ROOT    
