@<TRIPOS>MOLECULE
3R135
127   129    1
SMALL
USER_CHARGES


@<TRIPOS>ATOM
      1 CA        -82.7123   23.8617  -70.9667 C.3       0 UNK        -0.1998 
      2 C         -81.9673   25.0838  -71.4843 C.2       0 UNK         0.4909 
      3 O         -80.9359   25.4378  -70.9176 O.2       0 UNK        -0.5240 
      4 N         -82.4999   25.7036  -72.5488 N.am      1 UNK        -0.4739 
      5 CA        -81.9887   26.8574  -73.3082 C.3       1 UNK         0.0864 
      6 C6        -82.2558   28.2476  -72.6524 C.3       11 UNK        -0.0881 
      7 S7        -81.4171   28.6177  -71.0714 S.3       11 UNK        -0.2682 
      8 C8        -80.0861   29.7805  -71.5465 C.3       11 UNK         0.0289 
      9 C9        -78.6857   29.1772  -71.6914 C.ar      11 UNK        -0.0687 
     10 C10       -78.3446   27.9137  -71.1885 C.ar      11 UNK        -0.0823 
     11 C11       -77.0393   27.4256  -71.3010 C.ar      11 UNK        -0.0830 
     12 C12       -76.0635   28.2060  -71.9255 C.ar      11 UNK        -0.1021 
     13 C13       -76.3805   29.4735  -72.4183 C.ar      11 UNK        -0.0753 
     14 C14       -77.6904   29.9490  -72.3008 C.ar      11 UNK        -0.0933 
     15 C15       -75.3022   30.3504  -73.0361 C.3       11 UNK         0.0166 
     16 S16       -75.2291   30.1484  -74.8401 S.3       11 UNK        -0.2615 
     17 C17       -74.2694   31.6265  -75.3183 C.3       11 UNK        -0.0865 
     18 CA        -72.9049   31.2885  -75.9839 C.3       10 UNK         0.0862 
     19 C         -72.2109   32.5433  -76.5982 C.2       10 UNK         0.5551 
     20 N         -70.8859   32.6232  -76.6179 N.am      10 UNK        -0.7319 
     21 O         -72.8791   33.4471  -77.0951 O.2       10 UNK        -0.5018 
     22 N         -72.0273   30.4522  -75.1443 N.am      10 UNK        -0.4509 
     23 C         -71.5057   30.7787  -73.9519 C.2       10 UNK         0.4899 
     24 O         -71.7363   31.8425  -73.3756 O.2       10 UNK        -0.4839 
     25 CA        -70.5247   29.7721  -73.3099 C.3       9 UNK         0.0222 
     26 CB        -70.5475   29.8166  -71.7662 C.3       9 UNK        -0.1966 
     27 N         -70.6696   28.4008  -73.8179 N.am      9 UNK        -0.4218 
     28 C         -71.7108   27.5764  -73.6359 C.2       9 UNK         0.5020 
     29 O         -72.6687   27.8091  -72.8984 O.2       9 UNK        -0.5274 
     30 CA        -71.7003   26.2832  -74.4678 C.3       8 UNK         0.0270 
     31 CB        -71.8264   25.0437  -73.5672 C.3       8 UNK        -0.1976 
     32 N         -72.7859   26.2979  -75.4524 N.am      8 UNK        -0.4313 
     33 C         -72.8907   27.1908  -76.4499 C.2       8 UNK         0.5041 
     34 O         -72.0140   28.0228  -76.6984 O.2       8 UNK        -0.5577 
     35 CA        -74.1833   27.1800  -77.2927 C.3       7 UNK         0.0284 
     36 CB        -73.9853   27.7811  -78.6999 C.3       7 UNK        -0.1958 
     37 N         -74.8385   25.8714  -77.3704 N.am      7 UNK        -0.4454 
     38 C         -74.3410   24.7320  -77.8728 C.2       7 UNK         0.5089 
     39 O         -73.2333   24.6381  -78.4041 O.2       7 UNK        -0.5125 
     40 CA        -75.2387   23.4845  -77.7325 C.3       6 UNK         0.0408 
     41 CB        -74.4594   22.1644  -77.9058 C.3       6 UNK        -0.1791 
     42 N         -76.0110   23.4647  -76.4827 N.am      6 UNK        -0.4762 
     43 C         -75.5350   23.5086  -75.2269 C.2       6 UNK         0.5007 
     44 O         -74.3339   23.5689  -74.9661 O.2       6 UNK        -0.5032 
     45 CA        -76.5487   23.5193  -74.0599 C.3       5 UNK         0.0783 
     46 C46       -76.3545   24.7763  -73.1773 C.3       11 UNK        -0.0857 
     47 S47       -77.3592   24.6896  -71.6613 S.3       11 UNK        -0.2512 
     48 C48       -76.6757   26.0743  -70.7025 C.3       11 UNK         0.0225 
     49 N         -77.9379   23.3951  -74.5136 N.am      5 UNK        -0.4615 
     50 C         -78.5277   22.2610  -74.9101 C.2       4 UNK         0.5053 
     51 O         -77.9894   21.1551  -74.8684 O.2       4 UNK        -0.5105 
     52 CA        -79.9381   22.3992  -75.5051 C.3       4 UNK         0.0263 
     53 CB        -81.0088   22.3025  -74.4057 C.3       4 UNK        -0.1981 
     54 N         -80.0896   23.6580  -76.2434 N.am      4 UNK        -0.4224 
     55 C         -79.5464   23.8936  -77.4478 C.2       3 UNK         0.4895 
     56 O         -78.9161   23.0516  -78.0870 O.2       3 UNK        -0.5091 
     57 CA        -79.6979   25.3100  -78.0298 C.3       3 UNK         0.0250 
     58 CB        -81.0045   25.4268  -78.8305 C.3       3 UNK        -0.1996 
     59 N         -79.6526   26.3633  -77.0135 N.am      3 UNK        -0.4254 
     60 C         -78.5657   26.6895  -76.2990 C.2       2 UNK         0.5004 
     61 O         -77.4654   26.1591  -76.4431 O.2       2 UNK        -0.5226 
     62 CA        -78.7462   27.7695  -75.2186 C.3       2 UNK         0.0269 
     63 CB        -78.5505   29.1606  -75.8413 C.3       2 UNK        -0.1926 
     64 N         -80.0434   27.7313  -74.5306 N.am      2 UNK        -0.4687 
     65 C         -80.5780   26.6651  -73.9148 C.2       1 UNK         0.5165 
     66 O         -80.0458   25.5527  -73.9227 O.2       1 UNK        -0.5079 
     67 H67       -82.0656   22.9856  -71.0085 H         1 UNK         0.0900 
     68 H68       -83.0110   24.0160  -69.9303 H         1 UNK         0.0900 
     69 H69       -83.6081   23.6489  -71.5499 H         1 UNK         0.0900 
     70 H70       -83.3456   25.3087  -72.9352 H         1 UNK         0.2959 
     71 H71       -82.6209   26.8475  -74.1978 H         1 UNK         0.1079 
     72 H72       -83.3247   28.3205  -72.4467 H         1 UNK         0.0837 
     73 H73       -82.0699   29.0549  -73.3612 H         1 UNK         0.0837 
     74 H74       -80.0337   30.5490  -70.7748 H         1 UNK         0.0685 
     75 H75       -80.3607   30.2984  -72.4657 H         1 UNK         0.0685 
     76 H76       -79.0845   27.2989  -70.6964 H         1 UNK         0.1434 
     77 H77       -75.0507   27.8377  -72.0085 H         1 UNK         0.1329 
     78 H78       -77.9316   30.9345  -72.6752 H         1 UNK         0.1335 
     79 H79       -75.5028   31.3939  -72.7893 H         1 UNK         0.0680 
     80 H80       -74.3256   30.1144  -72.6100 H         1 UNK         0.0680 
     81 H81       -74.1204   32.2806  -74.4585 H         1 UNK         0.1032 
     82 H82       -74.8963   32.1922  -76.0096 H         1 UNK         0.1032 
     83 H83       -73.1291   30.6646  -76.8496 H         1 UNK         0.0461 
     84 H84       -70.4441   33.4318  -77.0263 H         1 UNK         0.3453 
     85 H85       -70.3258   31.8814  -76.2300 H         1 UNK         0.3453 
     86 H86       -71.8014   29.5485  -75.5522 H         1 UNK         0.2984 
     87 H87       -69.5310   30.0938  -73.6241 H         1 UNK         0.0554 
     88 H88       -70.2485   30.7994  -71.3998 H         1 UNK         0.0847 
     89 H89       -69.8591   29.0895  -71.3362 H         1 UNK         0.0847 
     90 H90       -71.5422   29.6154  -71.3679 H         1 UNK         0.0847 
     91 H91       -69.9522   28.1075  -74.4676 H         1 UNK         0.3141 
     92 H92       -70.7559   26.2106  -75.0111 H         1 UNK         0.0743 
     93 H93       -71.0284   25.0183  -72.8241 H         1 UNK         0.0784 
     94 H94       -71.7580   24.1237  -74.1479 H         1 UNK         0.0784 
     95 H95       -72.7745   25.0302  -73.0283 H         1 UNK         0.0784 
     96 H96       -73.5220   25.6143  -75.3251 H         1 UNK         0.3213 
     97 H97       -74.8842   27.8246  -76.7610 H         1 UNK         0.0855 
     98 H98       -73.2455   27.2249  -79.2760 H         1 UNK         0.0814 
     99 H99       -73.6400   28.8137  -78.6395 H         1 UNK         0.0814 
    100 H100      -74.9180   27.7863  -79.2636 H         1 UNK         0.0814 
    101 H101      -75.7798   25.8400  -76.9753 H         1 UNK         0.3105 
    102 H102      -75.9708   23.5456  -78.5390 H         1 UNK         0.0547 
    103 H103      -75.1185   21.3008  -77.8194 H         1 UNK         0.0837 
    104 H104      -73.6696   22.0606  -77.1611 H         1 UNK         0.0837 
    105 H105      -73.9883   22.1137  -78.8880 H         1 UNK         0.0837 
    106 H106      -77.0159   23.4598  -76.5968 H         1 UNK         0.3020 
    107 H107      -76.3114   22.6426  -73.4528 H         1 UNK         0.1245 
    108 H108      -76.6181   25.6816  -73.7268 H         1 UNK         0.0781 
    109 H109      -75.3101   24.8874  -72.8797 H         1 UNK         0.0781 
    110 H110      -75.5936   25.9609  -70.6195 H         1 UNK         0.0836 
    111 H111      -77.0650   26.0193  -69.6849 H         1 UNK         0.0836 
    112 H112      -78.4880   24.2475  -74.5037 H         1 UNK         0.3022 
    113 H113      -80.0913   21.5711  -76.2008 H         1 UNK         0.0747 
    114 H114      -82.0134   22.3941  -74.8186 H         1 UNK         0.0793 
    115 H115      -80.9540   21.3396  -73.8962 H         1 UNK         0.0793 
    116 H116      -80.8844   23.0755  -73.6473 H         1 UNK         0.0793 
    117 H117      -80.5141   24.4259  -75.7393 H         1 UNK         0.3047 
    118 H118      -78.8628   25.4725  -78.7151 H         1 UNK         0.0822 
    119 H119      -81.0840   26.3971  -79.3211 H         1 UNK         0.0807 
    120 H120      -81.8823   25.2971  -78.1962 H         1 UNK         0.0807 
    121 H121      -81.0519   24.6666  -79.6117 H         1 UNK         0.0807 
    122 H122      -80.5106   26.8626  -76.8307 H         1 UNK         0.2946 
    123 H123      -77.9703   27.6124  -74.4658 H         1 UNK         0.1144 
    124 H124      -78.5235   29.9387  -75.0792 H         1 UNK         0.0793 
    125 H125      -79.3463   29.4064  -76.5451 H         1 UNK         0.0793 
    126 H126      -77.6083   29.2141  -76.3880 H         1 UNK         0.0793 
    127 H127      -80.5511   28.6026  -74.5039 H         1 UNK         0.2896 
@<TRIPOS>BOND
     1    1    2 1    
     2    1   67 1    
     3    1   68 1    
     4    1   69 1    
     5    2    3 2    
     6    2    4 am   BACKBONE|DICT|INTERRES
     7    4    5 1    
     8    4   70 1    
     9    5    6 1    
    10    5   65 1    
    11    5   71 1    
    12    6    7 1    
    13    6   72 1    
    14    6   73 1    
    15    7    8 1    
    16    8    9 1    
    17    8   74 1    
    18    8   75 1    
    19    9   10 ar   
    20    9   14 ar   
    21   10   11 ar   
    22   10   76 1    
    23   11   12 ar   
    24   11   48 1    
    25   12   13 ar   
    26   12   77 1    
    27   13   14 ar   
    28   13   15 1    
    29   14   78 1    
    30   15   16 1    
    31   15   79 1    
    32   15   80 1    
    33   16   17 1    
    34   17   18 1    
    35   17   81 1    
    36   17   82 1    
    37   18   19 1    
    38   18   22 1    
    39   18   83 1    
    40   19   20 am   BACKBONE|DICT|INTERRES
    41   19   21 2    
    42   20   84 1    
    43   20   85 1    
    44   22   23 am   BACKBONE|DICT|INTERRES
    45   22   86 1    
    46   23   24 2    
    47   23   25 1    
    48   25   26 1    
    49   25   27 1    
    50   25   87 1    
    51   26   88 1    
    52   26   89 1    
    53   26   90 1    
    54   27   28 am   BACKBONE|DICT|INTERRES
    55   27   91 1    
    56   28   29 2    
    57   28   30 1    
    58   30   31 1    
    59   30   32 1    
    60   30   92 1    
    61   31   93 1    
    62   31   94 1    
    63   31   95 1    
    64   32   33 am   BACKBONE|DICT|INTERRES
    65   32   96 1    
    66   33   34 2    
    67   33   35 1    
    68   35   36 1    
    69   35   37 1    
    70   35   97 1    
    71   36   98 1    
    72   36   99 1    
    73   36  100 1    
    74   37   38 am   BACKBONE|DICT|INTERRES
    75   37  101 1    
    76   38   39 2    
    77   38   40 1    
    78   40   41 1    
    79   40   42 1    
    80   40  102 1    
    81   41  103 1    
    82   41  104 1    
    83   41  105 1    
    84   42   43 am   BACKBONE|DICT|INTERRES
    85   42  106 1    
    86   43   44 2    
    87   43   45 1    
    88   45   46 1    
    89   45   49 1    
    90   45  107 1    
    91   46   47 1    
    92   46  108 1    
    93   46  109 1    
    94   47   48 1    
    95   48  110 1    
    96   48  111 1    
    97   49   50 am   BACKBONE|DICT|INTERRES
    98   49  112 1    
    99   50   51 2    
   100   50   52 1    
   101   52   53 1    
   102   52   54 1    
   103   52  113 1    
   104   53  114 1    
   105   53  115 1    
   106   53  116 1    
   107   54   55 am   BACKBONE|DICT|INTERRES
   108   54  117 1    
   109   55   56 2    
   110   55   57 1    
   111   57   58 1    
   112   57   59 1    
   113   57  118 1    
   114   58  119 1    
   115   58  120 1    
   116   58  121 1    
   117   59   60 am   BACKBONE|DICT|INTERRES
   118   59  122 1    
   119   60   61 2    
   120   60   62 1    
   121   62   63 1    
   122   62   64 1    
   123   62  123 1    
   124   63  124 1    
   125   63  125 1    
   126   63  126 1    
   127   64   65 am   BACKBONE|DICT|INTERRES
   128   64  127 1    
   129   65   66 2    
@<TRIPOS>SUBSTRUCTURE
     1 UNK         1 GROUP             0       ****    0 ROOT    
