@<TRIPOS>MOLECULE
3R135
127   129    1
SMALL
USER_CHARGES


@<TRIPOS>ATOM
      1 CA        -75.7736   21.6417  -72.0566 C.3       0 UNK        -0.1998 
      2 C         -77.1473   21.9094  -71.4592 C.2       0 UNK         0.4909 
      3 O         -77.7683   20.9950  -70.9156 O.2       0 UNK        -0.5240 
      4 N         -77.6215   23.1578  -71.5480 N.am      1 UNK        -0.4739 
      5 CA        -78.9603   23.5800  -71.1281 C.3       1 UNK         0.0864 
      6 C6        -79.0220   25.1163  -70.9185 C.3       11 UNK        -0.0881 
      7 S7        -78.6790   26.0917  -72.4249 S.3       11 UNK        -0.2682 
      8 C8        -78.2736   27.7085  -71.6949 C.3       11 UNK         0.0289 
      9 C9        -78.0183   28.7531  -72.7715 C.ar      11 UNK        -0.0687 
     10 C10       -79.0516   29.1227  -73.6360 C.ar      11 UNK        -0.0823 
     11 C11       -78.8346   30.0624  -74.6464 C.ar      11 UNK        -0.0830 
     12 C12       -77.5798   30.6673  -74.7647 C.ar      11 UNK        -0.1021 
     13 C13       -76.5382   30.3111  -73.9015 C.ar      11 UNK        -0.0753 
     14 C14       -76.7608   29.3506  -72.9086 C.ar      11 UNK        -0.0933 
     15 C15       -75.1711   30.9569  -74.0566 C.3       11 UNK         0.0166 
     16 S16       -74.2197   30.1219  -75.3587 S.3       11 UNK        -0.2615 
     17 C17       -72.6936   31.1285  -75.4174 C.3       11 UNK        -0.0865 
     18 CA        -71.4019   30.2976  -75.1495 C.3       10 UNK         0.0862 
     19 C         -70.1055   31.1560  -75.2448 C.2       10 UNK         0.5551 
     20 N         -69.0843   30.8992  -74.4369 N.am      10 UNK        -0.7319 
     21 O         -70.0101   32.0481  -76.0842 O.2       10 UNK        -0.5018 
     22 N         -71.5074   29.4536  -73.9476 N.am      10 UNK        -0.4509 
     23 C         -71.7672   29.8875  -72.7056 C.2       10 UNK         0.4899 
     24 O         -71.7487   31.0718  -72.3687 O.2       10 UNK        -0.4839 
     25 CA        -72.2021   28.8113  -71.7008 C.3       9 UNK         0.0222 
     26 CB        -72.9861   29.3800  -70.5019 C.3       9 UNK        -0.1966 
     27 N         -73.0176   27.8202  -72.4021 N.am      9 UNK        -0.4218 
     28 C         -72.9910   26.5046  -72.1810 C.2       9 UNK         0.5020 
     29 O         -72.3718   25.9699  -71.2597 O.2       9 UNK        -0.5274 
     30 CA        -73.7819   25.6297  -73.1683 C.3       8 UNK         0.0270 
     31 CB        -75.2522   25.5765  -72.7397 C.3       8 UNK        -0.1976 
     32 N         -73.7080   25.9976  -74.5942 N.am      8 UNK        -0.4313 
     33 C         -72.5886   26.2537  -75.2928 C.2       8 UNK         0.5041 
     34 O         -71.4903   26.4859  -74.7865 O.2       8 UNK        -0.5577 
     35 CA        -72.7032   26.2490  -76.8204 C.3       7 UNK         0.0284 
     36 CB        -73.2650   24.9180  -77.3592 C.3       7 UNK        -0.1958 
     37 N         -73.5038   27.3758  -77.2845 N.am      7 UNK        -0.4454 
     38 C         -73.3912   27.9531  -78.4886 C.2       7 UNK         0.5089 
     39 O         -72.5692   27.6048  -79.3383 O.2       7 UNK        -0.5125 
     40 CA        -74.3592   29.1181  -78.7895 C.3       6 UNK         0.0408 
     41 CB        -74.5613   29.3626  -80.3003 C.3       6 UNK        -0.1791 
     42 N         -75.6451   28.9827  -78.0900 N.am      6 UNK        -0.4762 
     43 C         -76.5484   28.0050  -78.2517 C.2       6 UNK         0.5007 
     44 O         -76.4810   27.1395  -79.1286 O.2       6 UNK        -0.5032 
     45 CA        -77.7304   28.0054  -77.2634 C.3       5 UNK         0.0783 
     46 C46       -78.8690   28.9175  -77.7886 C.3       11 UNK        -0.0857 
     47 S47       -80.3331   28.9703  -76.6996 S.3       11 UNK        -0.2512 
     48 C48       -79.9536   30.3918  -75.6225 C.3       11 UNK         0.0225 
     49 N         -78.1810   26.6393  -77.0006 N.am      5 UNK        -0.4615 
     50 C         -77.4868   25.7030  -76.3445 C.2       4 UNK         0.5053 
     51 O         -76.3877   25.9109  -75.8209 O.2       4 UNK        -0.5105 
     52 CA        -78.1319   24.3006  -76.2827 C.3       4 UNK         0.0263 
     53 CB        -77.3130   23.3016  -75.4456 C.3       4 UNK        -0.1981 
     54 N         -79.5152   24.3177  -75.7861 N.am      4 UNK        -0.4224 
     55 C         -80.5909   24.7010  -76.4939 C.2       3 UNK         0.4895 
     56 O         -80.5147   25.0997  -77.6577 O.2       3 UNK        -0.5091 
     57 CA        -81.9736   24.6404  -75.8178 C.3       3 UNK         0.0250 
     58 CB        -83.0881   24.2233  -76.7986 C.3       3 UNK        -0.1996 
     59 N         -81.9799   23.7522  -74.6563 N.am      3 UNK        -0.4254 
     60 C         -82.7471   23.8931  -73.5702 C.2       2 UNK         0.5004 
     61 O         -83.5798   24.7889  -73.4260 O.2       2 UNK        -0.5226 
     62 CA        -82.5365   22.8702  -72.4382 C.3       2 UNK         0.0269 
     63 CB        -82.6123   21.4097  -72.9344 C.3       2 UNK        -0.1926 
     64 N         -81.3077   23.1243  -71.6723 N.am      2 UNK        -0.4687 
     65 C         -80.0428   23.0958  -72.1183 C.2       1 UNK         0.5165 
     66 O         -79.7277   22.7634  -73.2654 O.2       1 UNK        -0.5079 
     67 H67       -75.8563   20.9308  -72.8783 H         1 UNK         0.0900 
     68 H68       -75.3085   22.5489  -72.4400 H         1 UNK         0.0900 
     69 H69       -75.1122   21.2163  -71.3023 H         1 UNK         0.0900 
     70 H70       -77.0905   23.8650  -72.0330 H         1 UNK         0.2959 
     71 H71       -79.1699   23.1030  -70.1678 H         1 UNK         0.1079 
     72 H72       -78.3022   25.4002  -70.1489 H         1 UNK         0.0837 
     73 H73       -79.9973   25.4149  -70.5299 H         1 UNK         0.0837 
     74 H74       -79.0994   28.0387  -71.0632 H         1 UNK         0.0685 
     75 H75       -77.4035   27.6008  -71.0453 H         1 UNK         0.0685 
     76 H76       -80.0204   28.6506  -73.5429 H         1 UNK         0.1434 
     77 H77       -77.4037   31.3987  -75.5418 H         1 UNK         0.1329 
     78 H78       -75.9557   29.0685  -72.2445 H         1 UNK         0.1335 
     79 H79       -75.2866   32.0121  -74.3090 H         1 UNK         0.0680 
     80 H80       -74.6198   30.9200  -73.1162 H         1 UNK         0.0680 
     81 H81       -72.7683   31.9536  -74.7071 H         1 UNK         0.1032 
     82 H82       -72.6437   31.5929  -76.4039 H         1 UNK         0.1032 
     83 H83       -71.3137   29.5869  -75.9723 H         1 UNK         0.0461 
     84 H84       -68.2432   31.4498  -74.5081 H         1 UNK         0.3453 
     85 H85       -69.1552   30.1663  -73.7494 H         1 UNK         0.3453 
     86 H86       -71.4744   28.4529  -74.1167 H         1 UNK         0.2984 
     87 H87       -71.2871   28.3436  -71.3316 H         1 UNK         0.0554 
     88 H88       -72.3814   30.0935  -69.9408 H         1 UNK         0.0847 
     89 H89       -73.2782   28.5906  -69.8092 H         1 UNK         0.0847 
     90 H90       -73.8912   29.8974  -70.8214 H         1 UNK         0.0847 
     91 H91       -73.5390   28.1600  -73.1995 H         1 UNK         0.3141 
     92 H92       -73.3730   24.6205  -73.0903 H         1 UNK         0.0743 
     93 H93       -75.7998   24.8370  -73.3181 H         1 UNK         0.0784 
     94 H94       -75.3535   25.3140  -71.6855 H         1 UNK         0.0784 
     95 H95       -75.7416   26.5388  -72.8895 H         1 UNK         0.0784 
     96 H96       -74.5789   25.8866  -75.1113 H         1 UNK         0.3213 
     97 H97       -71.6877   26.3629  -77.2071 H         1 UNK         0.0855 
     98 H98       -74.3166   24.7832  -77.1066 H         1 UNK         0.0814 
     99 H99       -72.7168   24.0674  -76.9521 H         1 UNK         0.0814 
    100 H100      -73.1793   24.8663  -78.4447 H         1 UNK         0.0814 
    101 H101      -74.1776   27.7533  -76.6318 H         1 UNK         0.3105 
    102 H102      -73.8857   30.0119  -78.3814 H         1 UNK         0.0547 
    103 H103      -73.6186   29.6257  -80.7814 H         1 UNK         0.0837 
    104 H104      -74.9455   28.4783  -80.8092 H         1 UNK         0.0837 
    105 H105      -75.2552   30.1832  -80.4810 H         1 UNK         0.0837 
    106 H106      -75.7853   29.6463  -77.3388 H         1 UNK         0.3020 
    107 H107      -77.3682   28.3980  -76.3122 H         1 UNK         0.1245 
    108 H108      -78.5074   29.9366  -77.9386 H         1 UNK         0.0781 
    109 H109      -79.2054   28.5723  -78.7684 H         1 UNK         0.0781 
    110 H110      -80.8500   30.6584  -75.0609 H         1 UNK         0.0836 
    111 H111      -79.7052   31.2618  -76.2323 H         1 UNK         0.0836 
    112 H112      -79.0682   26.3666  -77.4112 H         1 UNK         0.3022 
    113 H113      -78.1417   23.9259  -77.3083 H         1 UNK         0.0747 
    114 H114      -76.2721   23.2652  -75.7696 H         1 UNK         0.0793 
    115 H115      -77.3250   23.5681  -74.3907 H         1 UNK         0.0793 
    116 H116      -77.7147   22.2921  -75.5332 H         1 UNK         0.0793 
    117 H117      -79.6350   24.0212  -74.8228 H         1 UNK         0.3047 
    118 H118      -82.1782   25.6585  -75.4793 H         1 UNK         0.0822 
    119 H119      -84.0668   24.2373  -76.3188 H         1 UNK         0.0807 
    120 H120      -82.9207   23.2193  -77.1899 H         1 UNK         0.0807 
    121 H121      -83.1413   24.9032  -77.6499 H         1 UNK         0.0807 
    122 H122      -81.2802   23.0186  -74.6386 H         1 UNK         0.2946 
    123 H123      -83.3641   23.0129  -71.7407 H         1 UNK         0.1144 
    124 H124      -83.5417   21.2326  -73.4772 H         1 UNK         0.0793 
    125 H125      -82.5904   20.7113  -72.0979 H         1 UNK         0.0793 
    126 H126      -81.7925   21.1473  -73.6030 H         1 UNK         0.0793 
    127 H127      -81.4624   23.4381  -70.7237 H         1 UNK         0.2896 
@<TRIPOS>BOND
     1    1    2 1    
     2    1   67 1    
     3    1   68 1    
     4    1   69 1    
     5    2    3 2    
     6    2    4 am   BACKBONE|DICT|INTERRES
     7    4    5 1    
     8    4   70 1    
     9    5    6 1    
    10    5   65 1    
    11    5   71 1    
    12    6    7 1    
    13    6   72 1    
    14    6   73 1    
    15    7    8 1    
    16    8    9 1    
    17    8   74 1    
    18    8   75 1    
    19    9   10 ar   
    20    9   14 ar   
    21   10   11 ar   
    22   10   76 1    
    23   11   12 ar   
    24   11   48 1    
    25   12   13 ar   
    26   12   77 1    
    27   13   14 ar   
    28   13   15 1    
    29   14   78 1    
    30   15   16 1    
    31   15   79 1    
    32   15   80 1    
    33   16   17 1    
    34   17   18 1    
    35   17   81 1    
    36   17   82 1    
    37   18   19 1    
    38   18   22 1    
    39   18   83 1    
    40   19   20 am   BACKBONE|DICT|INTERRES
    41   19   21 2    
    42   20   84 1    
    43   20   85 1    
    44   22   23 am   BACKBONE|DICT|INTERRES
    45   22   86 1    
    46   23   24 2    
    47   23   25 1    
    48   25   26 1    
    49   25   27 1    
    50   25   87 1    
    51   26   88 1    
    52   26   89 1    
    53   26   90 1    
    54   27   28 am   BACKBONE|DICT|INTERRES
    55   27   91 1    
    56   28   29 2    
    57   28   30 1    
    58   30   31 1    
    59   30   32 1    
    60   30   92 1    
    61   31   93 1    
    62   31   94 1    
    63   31   95 1    
    64   32   33 am   BACKBONE|DICT|INTERRES
    65   32   96 1    
    66   33   34 2    
    67   33   35 1    
    68   35   36 1    
    69   35   37 1    
    70   35   97 1    
    71   36   98 1    
    72   36   99 1    
    73   36  100 1    
    74   37   38 am   BACKBONE|DICT|INTERRES
    75   37  101 1    
    76   38   39 2    
    77   38   40 1    
    78   40   41 1    
    79   40   42 1    
    80   40  102 1    
    81   41  103 1    
    82   41  104 1    
    83   41  105 1    
    84   42   43 am   BACKBONE|DICT|INTERRES
    85   42  106 1    
    86   43   44 2    
    87   43   45 1    
    88   45   46 1    
    89   45   49 1    
    90   45  107 1    
    91   46   47 1    
    92   46  108 1    
    93   46  109 1    
    94   47   48 1    
    95   48  110 1    
    96   48  111 1    
    97   49   50 am   BACKBONE|DICT|INTERRES
    98   49  112 1    
    99   50   51 2    
   100   50   52 1    
   101   52   53 1    
   102   52   54 1    
   103   52  113 1    
   104   53  114 1    
   105   53  115 1    
   106   53  116 1    
   107   54   55 am   BACKBONE|DICT|INTERRES
   108   54  117 1    
   109   55   56 2    
   110   55   57 1    
   111   57   58 1    
   112   57   59 1    
   113   57  118 1    
   114   58  119 1    
   115   58  120 1    
   116   58  121 1    
   117   59   60 am   BACKBONE|DICT|INTERRES
   118   59  122 1    
   119   60   61 2    
   120   60   62 1    
   121   62   63 1    
   122   62   64 1    
   123   62  123 1    
   124   63  124 1    
   125   63  125 1    
   126   63  126 1    
   127   64   65 am   BACKBONE|DICT|INTERRES
   128   64  127 1    
   129   65   66 2    
@<TRIPOS>SUBSTRUCTURE
     1 UNK         1 GROUP             0       ****    0 ROOT    
