@<TRIPOS>MOLECULE
3R135
127   129    1
SMALL
USER_CHARGES


@<TRIPOS>ATOM
      1 CA        -81.0373   23.3692  -71.9304 C.3       0 UNK        -0.1998 
      2 C         -81.5531   24.6275  -72.6118 C.2       0 UNK         0.4909 
      3 O         -81.6288   24.6695  -73.8412 O.2       0 UNK        -0.5240 
      4 N         -81.9050   25.6463  -71.8122 N.am      1 UNK        -0.4739 
      5 CA        -82.4682   26.9422  -72.2246 C.3       1 UNK         0.0864 
      6 C6        -82.7546   27.8833  -71.0179 C.3       11 UNK        -0.0881 
      7 S7        -81.5104   27.8684  -69.6706 S.3       11 UNK        -0.2682 
      8 C8        -80.2869   29.1375  -70.1734 C.3       11 UNK         0.0289 
      9 C9        -78.8762   28.6171  -70.4848 C.ar      11 UNK        -0.0687 
     10 C10       -78.5362   27.2572  -70.4227 C.ar      11 UNK        -0.0823 
     11 C11       -77.2465   26.8259  -70.7391 C.ar      11 UNK        -0.0830 
     12 C12       -76.2759   27.7612  -71.1027 C.ar      11 UNK        -0.1021 
     13 C13       -76.5901   29.1189  -71.1732 C.ar      11 UNK        -0.0753 
     14 C14       -77.8884   29.5393  -70.8588 C.ar      11 UNK        -0.0933 
     15 C15       -75.5115   30.1230  -71.5640 C.3       11 UNK         0.0166 
     16 S16       -75.7349   30.7901  -73.2444 S.3       11 UNK        -0.2615 
     17 C17       -75.5835   29.3032  -74.3014 C.3       11 UNK        -0.0865 
     18 CA        -75.0249   29.5490  -75.7292 C.3       10 UNK         0.0862 
     19 C         -75.7837   30.6669  -76.5079 C.2       10 UNK         0.5551 
     20 N         -75.1659   31.8052  -76.8008 N.am      10 UNK        -0.7319 
     21 O         -76.9455   30.4909  -76.8638 O.2       10 UNK        -0.5018 
     22 N         -73.5597   29.6473  -75.7082 N.am      10 UNK        -0.4509 
     23 C         -72.7567   29.5793  -76.7758 C.2       10 UNK         0.4899 
     24 O         -73.1547   29.5357  -77.9395 O.2       10 UNK        -0.4839 
     25 CA        -71.2471   29.4992  -76.4960 C.3       9 UNK         0.0222 
     26 CB        -70.6900   30.8222  -75.9323 C.3       9 UNK        -0.1966 
     27 N         -70.8932   28.3386  -75.6672 N.am      9 UNK        -0.4218 
     28 C         -71.1776   28.1039  -74.3762 C.2       9 UNK         0.5020 
     29 O         -71.7214   28.9245  -73.6338 O.2       9 UNK        -0.5274 
     30 CA        -70.8368   26.6981  -73.8490 C.3       8 UNK         0.0270 
     31 CB        -71.5754   26.3700  -72.5366 C.3       8 UNK        -0.1976 
     32 N         -71.1941   25.6944  -74.8532 N.am      8 UNK        -0.4313 
     33 C         -70.3323   24.9950  -75.6044 C.2       8 UNK         0.5041 
     34 O         -69.1090   25.0814  -75.4944 O.2       8 UNK        -0.5577 
     35 CA        -70.9190   24.0552  -76.6779 C.3       7 UNK         0.0284 
     36 CB        -70.9186   22.6027  -76.1744 C.3       7 UNK        -0.1958 
     37 N         -72.2757   24.4149  -77.1006 N.am      7 UNK        -0.4454 
     38 C         -72.6065   25.5286  -77.7701 C.2       7 UNK         0.5089 
     39 O         -71.7797   26.3336  -78.1984 O.2       7 UNK        -0.5125 
     40 CA        -74.1123   25.8139  -77.9545 C.3       6 UNK         0.0408 
     41 CB        -74.5710   25.3920  -79.3586 C.3       6 UNK        -0.1791 
     42 N         -74.9875   25.1862  -76.9522 N.am      6 UNK        -0.4762 
     43 C         -74.9090   25.3711  -75.6251 C.2       6 UNK         0.5007 
     44 O         -74.0461   26.0767  -75.1005 O.2       6 UNK        -0.5032 
     45 CA        -75.9264   24.6287  -74.7356 C.3       5 UNK         0.0783 
     46 C46       -76.1680   25.3897  -73.4100 C.3       11 UNK        -0.0857 
     47 S47       -77.3217   24.5396  -72.2831 S.3       11 UNK        -0.2512 
     48 C48       -76.9069   25.3440  -70.7047 C.3       11 UNK         0.0225 
     49 N         -77.1796   24.3801  -75.4550 N.am      5 UNK        -0.4615 
     50 C         -77.6253   23.1756  -75.8344 C.2       4 UNK         0.5053 
     51 O         -76.9478   22.1507  -75.7533 O.2       4 UNK        -0.5105 
     52 CA        -79.0657   23.0704  -76.3744 C.3       4 UNK         0.0263 
     53 CB        -79.9040   22.1264  -75.4965 C.3       4 UNK        -0.1981 
     54 N         -79.7483   24.3648  -76.4598 N.am      4 UNK        -0.4224 
     55 C         -79.6642   25.1865  -77.5151 C.2       3 UNK         0.4895 
     56 O         -79.0402   24.9199  -78.5428 O.2       3 UNK        -0.5091 
     57 CA        -80.3689   26.5489  -77.3985 C.3       3 UNK         0.0250 
     58 CB        -81.8480   26.4260  -77.7971 C.3       3 UNK        -0.1996 
     59 N         -80.2764   27.1663  -76.0722 N.am      3 UNK        -0.4254 
     60 C         -79.1467   27.4587  -75.4151 C.2       2 UNK         0.5004 
     61 O         -78.0239   27.1715  -75.8277 O.2       2 UNK        -0.5226 
     62 CA        -79.2810   28.1572  -74.0530 C.3       2 UNK         0.0269 
     63 CB        -79.4276   29.6840  -74.2129 C.3       2 UNK        -0.1926 
     64 N         -80.3213   27.5952  -73.1900 N.am      2 UNK        -0.4687 
     65 C         -81.6513   27.6680  -73.3091 C.2       1 UNK         0.5165 
     66 O         -82.2341   28.2384  -74.2324 O.2       1 UNK        -0.5079 
     67 H67       -81.5913   22.4986  -72.2832 H         1 UNK         0.0900 
     68 H68       -79.9831   23.2197  -72.1619 H         1 UNK         0.0900 
     69 H69       -81.1421   23.4200  -70.8458 H         1 UNK         0.0900 
     70 H70       -81.8014   25.5404  -70.8125 H         1 UNK         0.2959 
     71 H71       -83.4277   26.7137  -72.6940 H         1 UNK         0.1079 
     72 H72       -82.9384   28.9112  -71.3383 H         1 UNK         0.0837 
     73 H73       -83.6936   27.5682  -70.5602 H         1 UNK         0.0837 
     74 H74       -80.2127   29.8655  -69.3645 H         1 UNK         0.0685 
     75 H75       -80.6621   29.6835  -71.0396 H         1 UNK         0.0685 
     76 H76       -79.2667   26.5139  -70.1400 H         1 UNK         0.1434 
     77 H77       -75.2744   27.4302  -71.3412 H         1 UNK         0.1329 
     78 H78       -78.1307   30.5920  -70.9132 H         1 UNK         0.1335 
     79 H79       -75.5232   30.9521  -70.8552 H         1 UNK         0.0680 
     80 H80       -74.5185   29.6761  -71.4904 H         1 UNK         0.0680 
     81 H81       -76.5700   28.8616  -74.3890 H         1 UNK         0.1032 
     82 H82       -74.9779   28.5518  -73.7913 H         1 UNK         0.1032 
     83 H83       -75.2326   28.6348  -76.2892 H         1 UNK         0.0461 
     84 H84       -74.2119   31.9501  -76.5130 H         1 UNK         0.3453 
     85 H85       -75.6588   32.5214  -77.3097 H         1 UNK         0.3453 
     86 H86       -73.1185   29.6411  -74.7933 H         1 UNK         0.2984 
     87 H87       -70.7581   29.3273  -77.4564 H         1 UNK         0.0554 
     88 H88       -70.8768   31.6447  -76.6237 H         1 UNK         0.0847 
     89 H89       -69.6120   30.7648  -75.7822 H         1 UNK         0.0847 
     90 H90       -71.1453   31.0943  -74.9800 H         1 UNK         0.0847 
     91 H91       -70.4899   27.5683  -76.1838 H         1 UNK         0.3141 
     92 H92       -69.7637   26.6802  -73.6491 H         1 UNK         0.0743 
     93 H93       -71.2950   27.0650  -71.7442 H         1 UNK         0.0784 
     94 H94       -72.6579   26.4315  -72.6581 H         1 UNK         0.0784 
     95 H95       -71.3339   25.3664  -72.1865 H         1 UNK         0.0784 
     96 H96       -72.1906   25.6245  -75.0486 H         1 UNK         0.3213 
     97 H97       -70.2685   24.1156  -77.5532 H         1 UNK         0.0855 
     98 H98       -71.5648   22.4755  -75.3048 H         1 UNK         0.0814 
     99 H99       -69.9145   22.2922  -75.8814 H         1 UNK         0.0814 
    100 H100      -71.2547   21.9128  -76.9487 H         1 UNK         0.0814 
    101 H101      -73.0236   23.8055  -76.8037 H         1 UNK         0.3105 
    102 H102      -74.2453   26.8936  -77.8650 H         1 UNK         0.0547 
    103 H103      -75.6066   25.6796  -79.5416 H         1 UNK         0.0837 
    104 H104      -74.4895   24.3141  -79.5036 H         1 UNK         0.0837 
    105 H105      -73.9635   25.8714  -80.1276 H         1 UNK         0.0837 
    106 H106      -75.7313   24.5984  -77.3016 H         1 UNK         0.3020 
    107 H107      -75.4515   23.6794  -74.4784 H         1 UNK         0.1245 
    108 H108      -76.5559   26.3883  -73.6113 H         1 UNK         0.0781 
    109 H109      -75.2240   25.5250  -72.8788 H         1 UNK         0.0781 
    110 H110      -75.8490   25.1957  -70.4822 H         1 UNK         0.0836 
    111 H111      -77.4578   24.8537  -69.9007 H         1 UNK         0.0836 
    112 H112      -77.7504   25.2030  -75.6201 H         1 UNK         0.3022 
    113 H113      -79.0043   22.6291  -77.3715 H         1 UNK         0.0747 
    114 H114      -80.9266   22.0416  -75.8648 H         1 UNK         0.0793 
    115 H115      -79.4799   21.1215  -75.4840 H         1 UNK         0.0793 
    116 H116      -79.9464   22.4735  -74.4650 H         1 UNK         0.0793 
    117 H117      -80.2923   24.6509  -75.6524 H         1 UNK         0.3047 
    118 H118      -79.8797   27.2267  -78.1012 H         1 UNK         0.0822 
    119 H119      -82.3337   27.4017  -77.8259 H         1 UNK         0.0807 
    120 H120      -82.4018   25.7964  -77.0991 H         1 UNK         0.0807 
    121 H121      -81.9510   25.9844  -78.7894 H         1 UNK         0.0807 
    122 H122      -81.1472   27.4448  -75.6296 H         1 UNK         0.2946 
    123 H123      -78.3571   27.9680  -73.5081 H         1 UNK         0.1144 
    124 H124      -80.3254   29.9564  -74.7674 H         1 UNK         0.0793 
    125 H125      -78.5813   30.1026  -74.7568 H         1 UNK         0.0793 
    126 H126      -79.4654   30.1845  -73.2463 H         1 UNK         0.0793 
    127 H127      -79.9729   27.0676  -72.4014 H         1 UNK         0.2896 
@<TRIPOS>BOND
     1    1    2 1    
     2    1   67 1    
     3    1   68 1    
     4    1   69 1    
     5    2    3 2    
     6    2    4 am   BACKBONE|DICT|INTERRES
     7    4    5 1    
     8    4   70 1    
     9    5    6 1    
    10    5   65 1    
    11    5   71 1    
    12    6    7 1    
    13    6   72 1    
    14    6   73 1    
    15    7    8 1    
    16    8    9 1    
    17    8   74 1    
    18    8   75 1    
    19    9   10 ar   
    20    9   14 ar   
    21   10   11 ar   
    22   10   76 1    
    23   11   12 ar   
    24   11   48 1    
    25   12   13 ar   
    26   12   77 1    
    27   13   14 ar   
    28   13   15 1    
    29   14   78 1    
    30   15   16 1    
    31   15   79 1    
    32   15   80 1    
    33   16   17 1    
    34   17   18 1    
    35   17   81 1    
    36   17   82 1    
    37   18   19 1    
    38   18   22 1    
    39   18   83 1    
    40   19   20 am   BACKBONE|DICT|INTERRES
    41   19   21 2    
    42   20   84 1    
    43   20   85 1    
    44   22   23 am   BACKBONE|DICT|INTERRES
    45   22   86 1    
    46   23   24 2    
    47   23   25 1    
    48   25   26 1    
    49   25   27 1    
    50   25   87 1    
    51   26   88 1    
    52   26   89 1    
    53   26   90 1    
    54   27   28 am   BACKBONE|DICT|INTERRES
    55   27   91 1    
    56   28   29 2    
    57   28   30 1    
    58   30   31 1    
    59   30   32 1    
    60   30   92 1    
    61   31   93 1    
    62   31   94 1    
    63   31   95 1    
    64   32   33 am   BACKBONE|DICT|INTERRES
    65   32   96 1    
    66   33   34 2    
    67   33   35 1    
    68   35   36 1    
    69   35   37 1    
    70   35   97 1    
    71   36   98 1    
    72   36   99 1    
    73   36  100 1    
    74   37   38 am   BACKBONE|DICT|INTERRES
    75   37  101 1    
    76   38   39 2    
    77   38   40 1    
    78   40   41 1    
    79   40   42 1    
    80   40  102 1    
    81   41  103 1    
    82   41  104 1    
    83   41  105 1    
    84   42   43 am   BACKBONE|DICT|INTERRES
    85   42  106 1    
    86   43   44 2    
    87   43   45 1    
    88   45   46 1    
    89   45   49 1    
    90   45  107 1    
    91   46   47 1    
    92   46  108 1    
    93   46  109 1    
    94   47   48 1    
    95   48  110 1    
    96   48  111 1    
    97   49   50 am   BACKBONE|DICT|INTERRES
    98   49  112 1    
    99   50   51 2    
   100   50   52 1    
   101   52   53 1    
   102   52   54 1    
   103   52  113 1    
   104   53  114 1    
   105   53  115 1    
   106   53  116 1    
   107   54   55 am   BACKBONE|DICT|INTERRES
   108   54  117 1    
   109   55   56 2    
   110   55   57 1    
   111   57   58 1    
   112   57   59 1    
   113   57  118 1    
   114   58  119 1    
   115   58  120 1    
   116   58  121 1    
   117   59   60 am   BACKBONE|DICT|INTERRES
   118   59  122 1    
   119   60   61 2    
   120   60   62 1    
   121   62   63 1    
   122   62   64 1    
   123   62  123 1    
   124   63  124 1    
   125   63  125 1    
   126   63  126 1    
   127   64   65 am   BACKBONE|DICT|INTERRES
   128   64  127 1    
   129   65   66 2    
@<TRIPOS>SUBSTRUCTURE
     1 UNK         1 GROUP             0       ****    0 ROOT    
