@<TRIPOS>MOLECULE
3R135
127   129    1
SMALL
USER_CHARGES


@<TRIPOS>ATOM
      1 CA        -78.3298   21.2878  -72.1663 C.3       0 UNK        -0.1998 
      2 C         -79.5852   21.9269  -71.5913 C.2       0 UNK         0.4909 
      3 O         -80.4467   21.2236  -71.0636 O.2       0 UNK        -0.5240 
      4 N         -79.6963   23.2579  -71.6932 N.am      1 UNK        -0.4739 
      5 CA        -80.8380   24.0497  -71.2119 C.3       1 UNK         0.0864 
      6 C6        -80.4516   25.5439  -71.0439 C.3       11 UNK        -0.0881 
      7 S7        -79.9821   26.3644  -72.6116 S.3       11 UNK        -0.2682 
      8 C8        -78.1670   26.4770  -72.4964 C.3       11 UNK         0.0289 
      9 C9        -77.6713   27.9173  -72.4735 C.ar      11 UNK        -0.0687 
     10 C10       -78.0878   28.8305  -73.4494 C.ar      11 UNK        -0.0823 
     11 C11       -77.5632   30.1257  -73.4807 C.ar      11 UNK        -0.0830 
     12 C12       -76.6490   30.5210  -72.5023 C.ar      11 UNK        -0.1021 
     13 C13       -76.2068   29.6142  -71.5376 C.ar      11 UNK        -0.0753 
     14 C14       -76.7306   28.3180  -71.5195 C.ar      11 UNK        -0.0933 
     15 C15       -75.1298   30.0199  -70.5446 C.3       11 UNK         0.0166 
     16 S16       -73.4642   29.7468  -71.2343 S.3       11 UNK        -0.2615 
     17 C17       -73.1621   31.2748  -72.1957 C.3       11 UNK        -0.0865 
     18 CA        -73.3591   31.1258  -73.7378 C.3       10 UNK         0.0862 
     19 C         -73.1547   32.4638  -74.5123 C.2       10 UNK         0.5551 
     20 N         -73.7313   33.5610  -74.0380 N.am      10 UNK        -0.7319 
     21 O         -72.5093   32.5248  -75.5578 O.2       10 UNK        -0.5018 
     22 N         -72.6214   29.9983  -74.3249 N.am      10 UNK        -0.4509 
     23 C         -71.2962   29.8058  -74.3241 C.2       10 UNK         0.4899 
     24 O         -70.4820   30.5536  -73.7790 O.2       10 UNK        -0.4839 
     25 CA        -70.8156   28.5450  -75.0683 C.3       9 UNK         0.0222 
     26 CB        -69.3306   28.2056  -74.8178 C.3       9 UNK        -0.1966 
     27 N         -71.6891   27.3963  -74.8026 N.am      9 UNK        -0.4218 
     28 C         -71.8869   26.7657  -73.6338 C.2       9 UNK         0.5020 
     29 O         -71.2457   26.9875  -72.6060 O.2       9 UNK        -0.5274 
     30 CA        -73.0050   25.7065  -73.5978 C.3       8 UNK         0.0270 
     31 CB        -74.2827   26.3037  -72.9857 C.3       8 UNK        -0.1976 
     32 N         -73.3264   25.1502  -74.9141 N.am      8 UNK        -0.4313 
     33 C         -72.5202   24.3498  -75.6256 C.2       8 UNK         0.5041 
     34 O         -71.4335   23.9331  -75.2230 O.2       8 UNK        -0.5577 
     35 CA        -72.9973   23.9749  -77.0364 C.3       7 UNK         0.0284 
     36 CB        -73.9943   22.8074  -76.9817 C.3       7 UNK        -0.1958 
     37 N         -73.6039   25.1174  -77.7250 N.am      7 UNK        -0.4454 
     38 C         -72.9062   26.1203  -78.2775 C.2       7 UNK         0.5089 
     39 O         -71.6767   26.1736  -78.2914 O.2       7 UNK        -0.5125 
     40 CA        -73.7127   27.2659  -78.9142 C.3       6 UNK         0.0408 
     41 CB        -74.0091   26.9589  -80.3905 C.3       6 UNK        -0.1791 
     42 N         -74.9673   27.5504  -78.2132 N.am      6 UNK        -0.4762 
     43 C         -75.0435   28.0972  -76.9913 C.2       6 UNK         0.5007 
     44 O         -74.0606   28.4130  -76.3189 O.2       6 UNK        -0.5032 
     45 CA        -76.4549   28.2595  -76.3973 C.3       5 UNK         0.0783 
     46 C46       -77.1568   29.5616  -76.8652 C.3       11 UNK        -0.0857 
     47 S47       -76.6694   31.0441  -75.9225 S.3       11 UNK        -0.2512 
     48 C48       -77.9277   31.0862  -74.6012 C.3       11 UNK         0.0225 
     49 N         -77.3201   27.0985  -76.6308 N.am      5 UNK        -0.4615 
     50 C         -77.0965   25.8446  -76.2242 C.2       4 UNK         0.5053 
     51 O         -76.0447   25.4813  -75.6965 O.2       4 UNK        -0.5105 
     52 CA        -78.2527   24.8418  -76.4223 C.3       4 UNK         0.0263 
     53 CB        -78.0110   23.5096  -75.6875 C.3       4 UNK        -0.1981 
     54 N         -79.5469   25.3747  -75.9841 N.am      4 UNK        -0.4224 
     55 C         -80.3301   26.2292  -76.6570 C.2       3 UNK         0.4895 
     56 O         -79.9972   26.7499  -77.7232 O.2       3 UNK        -0.5091 
     57 CA        -81.6878   26.5820  -76.0122 C.3       3 UNK         0.0250 
     58 CB        -82.7373   27.0432  -77.0458 C.3       3 UNK        -0.1996 
     59 N         -82.2219   25.5152  -75.1502 N.am      3 UNK        -0.4254 
     60 C         -82.5855   24.2730  -75.5106 C.2       2 UNK         0.5004 
     61 O         -82.5754   23.8620  -76.6718 O.2       2 UNK        -0.5226 
     62 CA        -82.9659   23.3232  -74.3599 C.3       2 UNK         0.0269 
     63 CB        -83.1096   21.8587  -74.8170 C.3       2 UNK        -0.1926 
     64 N         -81.9408   23.3957  -73.3170 N.am      2 UNK        -0.4687 
     65 C         -82.1075   23.8932  -72.0840 C.2       1 UNK         0.5165 
     66 O         -83.1954   24.2643  -71.6416 O.2       1 UNK        -0.5079 
     67 H67       -78.5905   20.6249  -72.9909 H         1 UNK         0.0900 
     68 H68       -77.6249   22.0314  -72.5376 H         1 UNK         0.0900 
     69 H69       -77.8256   20.6979  -71.4014 H         1 UNK         0.0900 
     70 H70       -78.9532   23.7880  -72.1231 H         1 UNK         0.2959 
     71 H71       -81.1063   23.6695  -70.2234 H         1 UNK         0.1079 
     72 H72       -79.6450   25.6407  -70.3160 H         1 UNK         0.0837 
     73 H73       -81.2864   26.1001  -70.6128 H         1 UNK         0.0837 
     74 H74       -77.7314   25.9787  -73.3618 H         1 UNK         0.0685 
     75 H75       -77.8060   25.9300  -71.6248 H         1 UNK         0.0685 
     76 H76       -78.7882   28.5172  -74.2112 H         1 UNK         0.1434 
     77 H77       -76.2397   31.5212  -72.5257 H         1 UNK         0.1329 
     78 H78       -76.3774   27.6112  -70.7811 H         1 UNK         0.1335 
     79 H79       -75.2541   31.0610  -70.2434 H         1 UNK         0.0680 
     80 H80       -75.2285   29.4291  -69.6327 H         1 UNK         0.0680 
     81 H81       -72.1436   31.6025  -71.9821 H         1 UNK         0.1032 
     82 H82       -73.8046   32.0604  -71.7983 H         1 UNK         0.1032 
     83 H83       -74.3993   30.8647  -73.9164 H         1 UNK         0.0461 
     84 H84       -73.6133   34.4256  -74.5428 H         1 UNK         0.3453 
     85 H85       -74.2913   33.5473  -73.2015 H         1 UNK         0.3453 
     86 H86       -73.1853   29.3584  -74.8762 H         1 UNK         0.2984 
     87 H87       -70.9253   28.7613  -76.1321 H         1 UNK         0.0554 
     88 H88       -68.6849   29.0155  -75.1590 H         1 UNK         0.0847 
     89 H89       -69.0335   27.3053  -75.3555 H         1 UNK         0.0847 
     90 H90       -69.1203   28.0506  -73.7593 H         1 UNK         0.0847 
     91 H91       -72.3196   27.1589  -75.5577 H         1 UNK         0.3141 
     92 H92       -72.6658   24.8891  -72.9582 H         1 UNK         0.0743 
     93 H93       -75.0709   25.5559  -72.8989 H         1 UNK         0.0784 
     94 H94       -74.0908   26.6922  -71.9846 H         1 UNK         0.0784 
     95 H95       -74.6691   27.1298  -73.5847 H         1 UNK         0.0784 
     96 H96       -74.2452   25.3780  -75.2916 H         1 UNK         0.3213 
     97 H97       -72.1265   23.6476  -77.6094 H         1 UNK         0.0855 
     98 H98       -74.8677   23.0533  -76.3795 H         1 UNK         0.0814 
     99 H99       -73.5328   21.9250  -76.5363 H         1 UNK         0.0814 
    100 H100      -74.3367   22.5266  -77.9777 H         1 UNK         0.0814 
    101 H101      -74.6118   25.1776  -77.7169 H         1 UNK         0.3105 
    102 H102      -73.0943   28.1654  -78.8741 H         1 UNK         0.0547 
    103 H103      -74.6436   26.0789  -80.5033 H         1 UNK         0.0837 
    104 H104      -73.0868   26.7673  -80.9410 H         1 UNK         0.0837 
    105 H105      -74.5060   27.7973  -80.8787 H         1 UNK         0.0837 
    106 H106      -75.8262   27.3075  -78.6864 H         1 UNK         0.3020 
    107 H107      -76.3038   28.3080  -75.3186 H         1 UNK         0.1245 
    108 H108      -78.2400   29.4625  -76.7783 H         1 UNK         0.0781 
    109 H109      -76.9757   29.7474  -77.9257 H         1 UNK         0.0781 
    110 H110      -78.9159   30.8613  -75.0052 H         1 UNK         0.0836 
    111 H111      -77.9876   32.1014  -74.2061 H         1 UNK         0.0836 
    112 H112      -78.2079   27.2751  -77.0910 H         1 UNK         0.3022 
    113 H113      -78.3119   24.6290  -77.4917 H         1 UNK         0.0747 
    114 H114      -77.8613   23.6585  -74.6177 H         1 UNK         0.0793 
    115 H115      -78.8488   22.8244  -75.8189 H         1 UNK         0.0793 
    116 H116      -77.1272   23.0040  -76.0739 H         1 UNK         0.0793 
    117 H117      -79.8794   25.0568  -75.0868 H         1 UNK         0.3047 
    118 H118      -81.4881   27.4279  -75.3524 H         1 UNK         0.0822 
    119 H119      -83.6823   27.2976  -76.5659 H         1 UNK         0.0807 
    120 H120      -82.9360   26.2747  -77.7934 H         1 UNK         0.0807 
    121 H121      -82.3975   27.9321  -77.5789 H         1 UNK         0.0807 
    122 H122      -82.2544   25.7376  -74.1640 H         1 UNK         0.2946 
    123 H123      -83.9337   23.6574  -73.9786 H         1 UNK         0.1144 
    124 H124      -83.3819   21.2105  -73.9839 H         1 UNK         0.0793 
    125 H125      -82.1836   21.4770  -75.2490 H         1 UNK         0.0793 
    126 H126      -83.8900   21.7586  -75.5725 H         1 UNK         0.0793 
    127 H127      -81.0092   23.1123  -73.5830 H         1 UNK         0.2896 
@<TRIPOS>BOND
     1    1    2 1    
     2    1   67 1    
     3    1   68 1    
     4    1   69 1    
     5    2    3 2    
     6    2    4 am   BACKBONE|DICT|INTERRES
     7    4    5 1    
     8    4   70 1    
     9    5    6 1    
    10    5   65 1    
    11    5   71 1    
    12    6    7 1    
    13    6   72 1    
    14    6   73 1    
    15    7    8 1    
    16    8    9 1    
    17    8   74 1    
    18    8   75 1    
    19    9   10 ar   
    20    9   14 ar   
    21   10   11 ar   
    22   10   76 1    
    23   11   12 ar   
    24   11   48 1    
    25   12   13 ar   
    26   12   77 1    
    27   13   14 ar   
    28   13   15 1    
    29   14   78 1    
    30   15   16 1    
    31   15   79 1    
    32   15   80 1    
    33   16   17 1    
    34   17   18 1    
    35   17   81 1    
    36   17   82 1    
    37   18   19 1    
    38   18   22 1    
    39   18   83 1    
    40   19   20 am   BACKBONE|DICT|INTERRES
    41   19   21 2    
    42   20   84 1    
    43   20   85 1    
    44   22   23 am   BACKBONE|DICT|INTERRES
    45   22   86 1    
    46   23   24 2    
    47   23   25 1    
    48   25   26 1    
    49   25   27 1    
    50   25   87 1    
    51   26   88 1    
    52   26   89 1    
    53   26   90 1    
    54   27   28 am   BACKBONE|DICT|INTERRES
    55   27   91 1    
    56   28   29 2    
    57   28   30 1    
    58   30   31 1    
    59   30   32 1    
    60   30   92 1    
    61   31   93 1    
    62   31   94 1    
    63   31   95 1    
    64   32   33 am   BACKBONE|DICT|INTERRES
    65   32   96 1    
    66   33   34 2    
    67   33   35 1    
    68   35   36 1    
    69   35   37 1    
    70   35   97 1    
    71   36   98 1    
    72   36   99 1    
    73   36  100 1    
    74   37   38 am   BACKBONE|DICT|INTERRES
    75   37  101 1    
    76   38   39 2    
    77   38   40 1    
    78   40   41 1    
    79   40   42 1    
    80   40  102 1    
    81   41  103 1    
    82   41  104 1    
    83   41  105 1    
    84   42   43 am   BACKBONE|DICT|INTERRES
    85   42  106 1    
    86   43   44 2    
    87   43   45 1    
    88   45   46 1    
    89   45   49 1    
    90   45  107 1    
    91   46   47 1    
    92   46  108 1    
    93   46  109 1    
    94   47   48 1    
    95   48  110 1    
    96   48  111 1    
    97   49   50 am   BACKBONE|DICT|INTERRES
    98   49  112 1    
    99   50   51 2    
   100   50   52 1    
   101   52   53 1    
   102   52   54 1    
   103   52  113 1    
   104   53  114 1    
   105   53  115 1    
   106   53  116 1    
   107   54   55 am   BACKBONE|DICT|INTERRES
   108   54  117 1    
   109   55   56 2    
   110   55   57 1    
   111   57   58 1    
   112   57   59 1    
   113   57  118 1    
   114   58  119 1    
   115   58  120 1    
   116   58  121 1    
   117   59   60 am   BACKBONE|DICT|INTERRES
   118   59  122 1    
   119   60   61 2    
   120   60   62 1    
   121   62   63 1    
   122   62   64 1    
   123   62  123 1    
   124   63  124 1    
   125   63  125 1    
   126   63  126 1    
   127   64   65 am   BACKBONE|DICT|INTERRES
   128   64  127 1    
   129   65   66 2    
@<TRIPOS>SUBSTRUCTURE
     1 UNK         1 GROUP             0       ****    0 ROOT    
