@<TRIPOS>MOLECULE
3R135
127   129    1
SMALL
USER_CHARGES


@<TRIPOS>ATOM
      1 CA        -84.4925   24.1402  -73.1965 C.3       0 UNK        -0.1998 
      2 C         -83.2480   25.0134  -73.2342 C.2       0 UNK         0.4909 
      3 O         -82.1468   24.5108  -73.0127 O.2       0 UNK        -0.5240 
      4 N         -83.4158   26.3110  -73.5300 N.am      1 UNK        -0.4739 
      5 CA        -82.3617   27.3337  -73.6024 C.3       1 UNK         0.0864 
      6 C6        -81.8018   27.7027  -72.2001 C.3       11 UNK        -0.0881 
      7 S7        -81.2398   29.4360  -72.1090 S.3       11 UNK        -0.2682 
      8 C8        -79.7568   29.3119  -71.0449 C.3       11 UNK         0.0289 
      9 C9        -78.4151   29.1857  -71.7727 C.ar      11 UNK        -0.0687 
     10 C10       -78.2292   29.6204  -73.0936 C.ar      11 UNK        -0.0823 
     11 C11       -76.9683   29.5590  -73.6978 C.ar      11 UNK        -0.0830 
     12 C12       -75.8849   29.0702  -72.9670 C.ar      11 UNK        -0.1021 
     13 C13       -76.0511   28.6226  -71.6574 C.ar      11 UNK        -0.0753 
     14 C14       -77.3162   28.6819  -71.0654 C.ar      11 UNK        -0.0933 
     15 C15       -74.8503   28.0855  -70.8977 C.3       11 UNK         0.0166 
     16 S16       -73.9355   29.4435  -70.1013 S.3       11 UNK        -0.2615 
     17 C17       -72.1999   28.9080  -70.3009 C.3       11 UNK        -0.0865 
     18 CA        -71.4064   29.8045  -71.2907 C.3       10 UNK         0.0862 
     19 C         -69.8905   29.4469  -71.2739 C.2       10 UNK         0.5551 
     20 N         -69.2878   29.0351  -72.3829 N.am      10 UNK        -0.7319 
     21 O         -69.2476   29.5530  -70.2323 O.2       10 UNK        -0.5018 
     22 N         -72.0152   29.8154  -72.6321 N.am      10 UNK        -0.4509 
     23 C         -71.8668   30.7803  -73.5461 C.2       10 UNK         0.4899 
     24 O         -71.1986   31.7988  -73.3614 O.2       10 UNK        -0.4839 
     25 CA        -72.5765   30.5550  -74.8986 C.3       9 UNK         0.0222 
     26 CB        -72.5411   31.8030  -75.8000 C.3       9 UNK        -0.1966 
     27 N         -72.0344   29.4159  -75.6472 N.am      9 UNK        -0.4218 
     28 C         -72.1842   28.1233  -75.3314 C.2       9 UNK         0.5020 
     29 O         -72.8056   27.7273  -74.3431 O.2       9 UNK        -0.5274 
     30 CA        -71.5518   27.1142  -76.2982 C.3       8 UNK         0.0270 
     31 CB        -71.0569   25.8487  -75.5740 C.3       8 UNK        -0.1976 
     32 N         -72.5565   26.7451  -77.2931 N.am      8 UNK        -0.4313 
     33 C         -72.6386   27.2663  -78.5254 C.2       8 UNK         0.5041 
     34 O         -71.8184   28.0769  -78.9608 O.2       8 UNK        -0.5577 
     35 CA        -73.8325   26.8740  -79.4253 C.3       7 UNK         0.0284 
     36 CB        -73.3860   26.5177  -80.8595 C.3       7 UNK        -0.1958 
     37 N         -74.7230   25.8463  -78.8696 N.am      7 UNK        -0.4454 
     38 C         -74.4773   24.5427  -78.6622 C.2       7 UNK         0.5089 
     39 O         -73.4418   23.9706  -79.0044 O.2       7 UNK        -0.5125 
     40 CA        -75.5743   23.7712  -77.8887 C.3       6 UNK         0.0408 
     41 CB        -75.0533   22.4626  -77.2604 C.3       6 UNK        -0.1791 
     42 N         -76.2446   24.5941  -76.8686 N.am      6 UNK        -0.4762 
     43 C         -75.6396   25.2894  -75.8908 C.2       6 UNK         0.5007 
     44 O         -74.4291   25.2513  -75.6809 O.2       6 UNK        -0.5032 
     45 CA        -76.5266   26.2173  -75.0451 C.3       5 UNK         0.0783 
     46 C46       -77.1730   27.3333  -75.9115 C.3       11 UNK        -0.0857 
     47 S47       -76.0357   28.7275  -76.2018 S.3       11 UNK        -0.2512 
     48 C48       -76.7745   30.0178  -75.1397 C.3       11 UNK         0.0225 
     49 N         -77.5182   25.4663  -74.2784 N.am      5 UNK        -0.4615 
     50 C         -77.2412   24.5690  -73.3215 C.2       4 UNK         0.5053 
     51 O         -76.1066   24.3112  -72.9200 O.2       4 UNK        -0.5105 
     52 CA        -78.4373   23.8218  -72.7090 C.3       4 UNK         0.0263 
     53 CB        -79.0186   24.6224  -71.5344 C.3       4 UNK        -0.1981 
     54 N         -79.4843   23.5515  -73.6981 N.am      4 UNK        -0.4224 
     55 C         -79.3498   22.6851  -74.7143 C.2       3 UNK         0.4895 
     56 O         -78.3796   21.9404  -74.8584 O.2       3 UNK        -0.5091 
     57 CA        -80.4686   22.6652  -75.7679 C.3       3 UNK         0.0250 
     58 CB        -81.6523   21.8024  -75.3010 C.3       3 UNK        -0.1996 
     59 N         -80.9339   24.0106  -76.1119 N.am      3 UNK        -0.4254 
     60 C         -80.2120   24.9136  -76.7922 C.2       2 UNK         0.5004 
     61 O         -79.0836   24.7000  -77.2371 O.2       2 UNK        -0.5226 
     62 CA        -80.8437   26.3026  -76.9921 C.3       2 UNK         0.0269 
     63 CB        -81.6407   26.3462  -78.3052 C.3       2 UNK        -0.1926 
     64 N         -81.7062   26.7231  -75.8824 N.am      2 UNK        -0.4687 
     65 C         -81.2758   26.9511  -74.6325 C.2       1 UNK         0.5165 
     66 O         -80.1039   26.8025  -74.2872 O.2       1 UNK        -0.5079 
     67 H67       -84.4298   23.3637  -73.9582 H         1 UNK         0.0900 
     68 H68       -84.5796   23.6569  -72.2239 H         1 UNK         0.0900 
     69 H69       -85.4012   24.7159  -73.3714 H         1 UNK         0.0900 
     70 H70       -84.3507   26.6481  -73.7163 H         1 UNK         0.2959 
     71 H71       -82.8540   28.2203  -74.0060 H         1 UNK         0.1079 
     72 H72       -82.5857   27.5960  -71.4488 H         1 UNK         0.0837 
     73 H73       -81.0127   27.0202  -71.8888 H         1 UNK         0.0837 
     74 H74       -79.8854   28.4817  -70.3487 H         1 UNK         0.0685 
     75 H75       -79.7137   30.2134  -70.4326 H         1 UNK         0.0685 
     76 H76       -79.0617   30.0174  -73.6560 H         1 UNK         0.1434 
     77 H77       -74.9094   29.0153  -73.4258 H         1 UNK         0.1329 
     78 H78       -77.4398   28.3531  -70.0426 H         1 UNK         0.1335 
     79 H79       -74.2054   27.5429  -71.5911 H         1 UNK         0.0680 
     80 H80       -75.1634   27.3652  -70.1403 H         1 UNK         0.0680 
     81 H81       -72.1551   27.8622  -70.6096 H         1 UNK         0.1032 
     82 H82       -71.7414   28.9420  -69.3105 H         1 UNK         0.1032 
     83 H83       -71.4633   30.8254  -70.9080 H         1 UNK         0.0461 
     84 H84       -69.8059   28.9560  -73.2418 H         1 UNK         0.3453 
     85 H85       -68.3054   28.8114  -72.3587 H         1 UNK         0.3453 
     86 H86       -72.5090   28.9743  -72.9168 H         1 UNK         0.2984 
     87 H87       -73.6249   30.3494  -74.6822 H         1 UNK         0.0554 
     88 H88       -72.9664   32.6670  -75.2874 H         1 UNK         0.0847 
     89 H89       -73.1230   31.6518  -76.7095 H         1 UNK         0.0847 
     90 H90       -71.5231   32.0650  -76.0909 H         1 UNK         0.0847 
     91 H91       -71.5149   29.6399  -76.4848 H         1 UNK         0.3141 
     92 H92       -70.6852   27.5779  -76.7742 H         1 UNK         0.0743 
     93 H93       -70.3056   26.0994  -74.8242 H         1 UNK         0.0784 
     94 H94       -70.5992   25.1484  -76.2728 H         1 UNK         0.0784 
     95 H95       -71.8645   25.3256  -75.0610 H         1 UNK         0.0784 
     96 H96       -73.2940   26.1329  -76.9515 H         1 UNK         0.3213 
     97 H97       -74.4444   27.7749  -79.4946 H         1 UNK         0.0855 
     98 H98       -72.6950   25.6746  -80.8733 H         1 UNK         0.0814 
     99 H99       -72.8745   27.3587  -81.3294 H         1 UNK         0.0814 
    100 H100      -74.2378   26.2661  -81.4911 H         1 UNK         0.0814 
    101 H101      -75.6100   26.1923  -78.5310 H         1 UNK         0.3105 
    102 H102      -76.3392   23.5081  -78.6205 H         1 UNK         0.0547 
    103 H103      -75.8468   21.9357  -76.7300 H         1 UNK         0.0837 
    104 H104      -74.2442   22.6483  -76.5532 H         1 UNK         0.0837 
    105 H105      -74.6693   21.7859  -78.0247 H         1 UNK         0.0837 
    106 H106      -77.2586   24.6633  -76.9586 H         1 UNK         0.3020 
    107 H107      -75.8720   26.6851  -74.3069 H         1 UNK         0.1245 
    108 H108      -78.0609   27.7267  -75.4200 H         1 UNK         0.0781 
    109 H109      -77.5273   26.9617  -76.8737 H         1 UNK         0.0781 
    110 H110      -77.7244   30.3272  -75.5782 H         1 UNK         0.0836 
    111 H111      -76.1298   30.8975  -75.1503 H         1 UNK         0.0836 
    112 H112      -78.4920   25.6870  -74.4625 H         1 UNK         0.3022 
    113 H113      -78.0799   22.8635  -72.3263 H         1 UNK         0.0747 
    114 H114      -79.9089   24.1464  -71.1231 H         1 UNK         0.0793 
    115 H115      -78.2900   24.7109  -70.7276 H         1 UNK         0.0793 
    116 H116      -79.2840   25.6335  -71.8395 H         1 UNK         0.0793 
    117 H117      -80.3481   24.0820  -73.6101 H         1 UNK         0.3047 
    118 H118      -80.0592   22.2131  -76.6741 H         1 UNK         0.0822 
    119 H119      -82.4297   21.7475  -76.0631 H         1 UNK         0.0807 
    120 H120      -82.1031   22.1883  -74.3867 H         1 UNK         0.0807 
    121 H121      -81.3289   20.7811  -75.0954 H         1 UNK         0.0807 
    122 H122      -81.8362   24.2892  -75.7560 H         1 UNK         0.2946 
    123 H123      -80.0258   27.0222  -77.0671 H         1 UNK         0.1144 
    124 H124      -82.0155   27.3493  -78.5093 H         1 UNK         0.0793 
    125 H125      -82.4929   25.6657  -78.2849 H         1 UNK         0.0793 
    126 H126      -81.0142   26.0587  -79.1510 H         1 UNK         0.0793 
    127 H127      -82.6894   26.8363  -76.0848 H         1 UNK         0.2896 
@<TRIPOS>BOND
     1    1    2 1    
     2    1   67 1    
     3    1   68 1    
     4    1   69 1    
     5    2    3 2    
     6    2    4 am   BACKBONE|DICT|INTERRES
     7    4    5 1    
     8    4   70 1    
     9    5    6 1    
    10    5   65 1    
    11    5   71 1    
    12    6    7 1    
    13    6   72 1    
    14    6   73 1    
    15    7    8 1    
    16    8    9 1    
    17    8   74 1    
    18    8   75 1    
    19    9   10 ar   
    20    9   14 ar   
    21   10   11 ar   
    22   10   76 1    
    23   11   12 ar   
    24   11   48 1    
    25   12   13 ar   
    26   12   77 1    
    27   13   14 ar   
    28   13   15 1    
    29   14   78 1    
    30   15   16 1    
    31   15   79 1    
    32   15   80 1    
    33   16   17 1    
    34   17   18 1    
    35   17   81 1    
    36   17   82 1    
    37   18   19 1    
    38   18   22 1    
    39   18   83 1    
    40   19   20 am   BACKBONE|DICT|INTERRES
    41   19   21 2    
    42   20   84 1    
    43   20   85 1    
    44   22   23 am   BACKBONE|DICT|INTERRES
    45   22   86 1    
    46   23   24 2    
    47   23   25 1    
    48   25   26 1    
    49   25   27 1    
    50   25   87 1    
    51   26   88 1    
    52   26   89 1    
    53   26   90 1    
    54   27   28 am   BACKBONE|DICT|INTERRES
    55   27   91 1    
    56   28   29 2    
    57   28   30 1    
    58   30   31 1    
    59   30   32 1    
    60   30   92 1    
    61   31   93 1    
    62   31   94 1    
    63   31   95 1    
    64   32   33 am   BACKBONE|DICT|INTERRES
    65   32   96 1    
    66   33   34 2    
    67   33   35 1    
    68   35   36 1    
    69   35   37 1    
    70   35   97 1    
    71   36   98 1    
    72   36   99 1    
    73   36  100 1    
    74   37   38 am   BACKBONE|DICT|INTERRES
    75   37  101 1    
    76   38   39 2    
    77   38   40 1    
    78   40   41 1    
    79   40   42 1    
    80   40  102 1    
    81   41  103 1    
    82   41  104 1    
    83   41  105 1    
    84   42   43 am   BACKBONE|DICT|INTERRES
    85   42  106 1    
    86   43   44 2    
    87   43   45 1    
    88   45   46 1    
    89   45   49 1    
    90   45  107 1    
    91   46   47 1    
    92   46  108 1    
    93   46  109 1    
    94   47   48 1    
    95   48  110 1    
    96   48  111 1    
    97   49   50 am   BACKBONE|DICT|INTERRES
    98   49  112 1    
    99   50   51 2    
   100   50   52 1    
   101   52   53 1    
   102   52   54 1    
   103   52  113 1    
   104   53  114 1    
   105   53  115 1    
   106   53  116 1    
   107   54   55 am   BACKBONE|DICT|INTERRES
   108   54  117 1    
   109   55   56 2    
   110   55   57 1    
   111   57   58 1    
   112   57   59 1    
   113   57  118 1    
   114   58  119 1    
   115   58  120 1    
   116   58  121 1    
   117   59   60 am   BACKBONE|DICT|INTERRES
   118   59  122 1    
   119   60   61 2    
   120   60   62 1    
   121   62   63 1    
   122   62   64 1    
   123   62  123 1    
   124   63  124 1    
   125   63  125 1    
   126   63  126 1    
   127   64   65 am   BACKBONE|DICT|INTERRES
   128   64  127 1    
   129   65   66 2    
@<TRIPOS>SUBSTRUCTURE
     1 UNK         1 GROUP             0       ****    0 ROOT    
