@<TRIPOS>MOLECULE
3R135
127   129    1
SMALL
USER_CHARGES


@<TRIPOS>ATOM
      1 CA        -83.3617   26.7720  -71.1184 C.3       0 UNK        -0.1998 
      2 C         -81.9841   27.4296  -71.1369 C.2       0 UNK         0.4909 
      3 O         -81.3600   27.5434  -70.0846 O.2       0 UNK        -0.5240 
      4 N         -81.4626   27.8848  -72.2862 N.am      1 UNK        -0.4739 
      5 CA        -82.0393   27.8155  -73.6389 C.3       1 UNK         0.0864 
      6 C6        -81.1864   28.5891  -74.6791 C.3       11 UNK        -0.0881 
      7 S7        -80.7588   30.2971  -74.2002 S.3       11 UNK        -0.2682 
      8 C8        -78.9613   30.3190  -74.5138 C.3       11 UNK         0.0289 
      9 C9        -78.1465   30.0026  -73.2661 C.ar      11 UNK        -0.0687 
     10 C10       -78.2097   28.7424  -72.6573 C.ar      11 UNK        -0.0823 
     11 C11       -77.4915   28.4846  -71.4846 C.ar      11 UNK        -0.0830 
     12 C12       -76.6508   29.4709  -70.9647 C.ar      11 UNK        -0.1021 
     13 C13       -76.5411   30.7137  -71.5914 C.ar      11 UNK        -0.0753 
     14 C14       -77.3110   30.9841  -72.7244 C.ar      11 UNK        -0.0933 
     15 C15       -75.5786   31.7538  -71.0451 C.3       11 UNK         0.0166 
     16 S16       -73.8595   31.3261  -71.4596 S.3       11 UNK        -0.2615 
     17 C17       -73.7704   31.7359  -73.2406 C.3       11 UNK        -0.0865 
     18 CA        -74.0247   30.5444  -74.2169 C.3       10 UNK         0.0862 
     19 C         -73.8436   31.0017  -75.6899 C.2       10 UNK         0.5551 
     20 N         -74.8593   31.6383  -76.2586 N.am      10 UNK        -0.7319 
     21 O         -72.7925   30.8409  -76.3062 O.2       10 UNK        -0.5018 
     22 N         -73.2921   29.3118  -73.8861 N.am      10 UNK        -0.4509 
     23 C         -71.9794   29.1802  -73.6624 C.2       10 UNK         0.4899 
     24 O         -71.1522   30.0876  -73.7578 O.2       10 UNK        -0.4839 
     25 CA        -71.5138   27.7943  -73.2076 C.3       9 UNK         0.0222 
     26 CB        -72.2032   27.3738  -71.8948 C.3       9 UNK        -0.1966 
     27 N         -71.7640   26.7847  -74.2379 N.am      9 UNK        -0.4218 
     28 C         -70.7979   26.0870  -74.8498 C.2       9 UNK         0.5020 
     29 O         -69.5934   26.2957  -74.6921 O.2       9 UNK        -0.5274 
     30 CA        -71.2222   24.9181  -75.7501 C.3       8 UNK         0.0270 
     31 CB        -71.4109   23.6471  -74.9052 C.3       8 UNK        -0.1976 
     32 N         -72.4310   25.1666  -76.5377 N.am      8 UNK        -0.4313 
     33 C         -72.4449   25.8717  -77.6772 C.2       8 UNK         0.5041 
     34 O         -71.4741   26.4965  -78.1074 O.2       8 UNK        -0.5577 
     35 CA        -73.7395   25.8341  -78.5060 C.3       7 UNK         0.0284 
     36 CB        -73.9291   24.4575  -79.1653 C.3       7 UNK        -0.1958 
     37 N         -74.9211   26.1664  -77.7136 N.am      7 UNK        -0.4454 
     38 C         -75.2510   27.4098  -77.3409 C.2       7 UNK         0.5089 
     39 O         -74.6315   28.4137  -77.6866 O.2       7 UNK        -0.5125 
     40 CA        -76.4816   27.5622  -76.4283 C.3       6 UNK         0.0408 
     41 CB        -77.7605   27.6536  -77.2763 C.3       6 UNK        -0.1791 
     42 N         -76.6199   26.4710  -75.4620 N.am      6 UNK        -0.4762 
     43 C         -75.7200   26.1565  -74.5182 C.2       6 UNK         0.5007 
     44 O         -74.6761   26.7824  -74.3231 O.2       6 UNK        -0.5032 
     45 CA        -76.0066   24.8800  -73.7051 C.3       5 UNK         0.0783 
     46 C46       -77.0299   25.1249  -72.5736 C.3       11 UNK        -0.0857 
     47 S47       -76.3111   25.9941  -71.1453 S.3       11 UNK        -0.2512 
     48 C48       -77.6420   27.1656  -70.7416 C.3       11 UNK         0.0225 
     49 N         -76.4416   23.7834  -74.5736 N.am      5 UNK        -0.4615 
     50 C         -75.6682   23.1668  -75.4757 C.2       4 UNK         0.5053 
     51 O         -74.4881   23.4482  -75.6705 O.2       4 UNK        -0.5105 
     52 CA        -76.3370   22.0815  -76.3338 C.3       4 UNK         0.0263 
     53 CB        -76.3666   20.7404  -75.5842 C.3       4 UNK        -0.1981 
     54 N         -77.6940   22.4498  -76.7435 N.am      4 UNK        -0.4224 
     55 C         -77.9788   23.4664  -77.5698 C.2       3 UNK         0.4895 
     56 O         -77.1255   24.1684  -78.1116 O.2       3 UNK        -0.5091 
     57 CA        -79.4674   23.7808  -77.7928 C.3       3 UNK         0.0250 
     58 CB        -80.0450   22.8974  -78.9100 C.3       3 UNK        -0.1996 
     59 N         -80.2917   23.6524  -76.5838 N.am      3 UNK        -0.4254 
     60 C         -80.1155   24.3714  -75.4671 C.2       2 UNK         0.5004 
     61 O         -79.1828   25.1624  -75.2993 O.2       2 UNK        -0.5226 
     62 CA        -81.1281   24.1626  -74.3305 C.3       2 UNK         0.0269 
     63 CB        -80.5810   23.1694  -73.2934 C.3       2 UNK        -0.1926 
     64 N         -81.3747   25.4498  -73.6821 N.am      2 UNK        -0.4687 
     65 C         -82.2148   26.3751  -74.1646 C.2       1 UNK         0.5165 
     66 O         -83.0648   26.1438  -75.0250 O.2       1 UNK        -0.5079 
     67 H67       -84.0634   27.2704  -71.7853 H         1 UNK         0.0900 
     68 H68       -83.7847   26.8145  -70.1148 H         1 UNK         0.0900 
     69 H69       -83.2885   25.7228  -71.4031 H         1 UNK         0.0900 
     70 H70       -80.5911   28.3917  -72.2316 H         1 UNK         0.2959 
     71 H71       -83.0271   28.2791  -73.6060 H         1 UNK         0.1079 
     72 H72       -80.2698   28.0381  -74.8963 H         1 UNK         0.0837 
     73 H73       -81.7207   28.6478  -75.6299 H         1 UNK         0.0837 
     74 H74       -78.6960   29.6298  -75.3139 H         1 UNK         0.0685 
     75 H75       -78.7055   31.3112  -74.8886 H         1 UNK         0.0685 
     76 H76       -78.8301   27.9689  -73.0829 H         1 UNK         0.1434 
     77 H77       -76.0711   29.2683  -70.0743 H         1 UNK         0.1329 
     78 H78       -77.2413   31.9543  -73.1965 H         1 UNK         0.1335 
     79 H79       -75.8165   32.7507  -71.4194 H         1 UNK         0.0680 
     80 H80       -75.6780   31.8026  -69.9598 H         1 UNK         0.0680 
     81 H81       -72.7812   32.1603  -73.4215 H         1 UNK         0.1032 
     82 H82       -74.4713   32.5460  -73.4483 H         1 UNK         0.1032 
     83 H83       -75.0689   30.2511  -74.1150 H         1 UNK         0.0461 
     84 H84       -74.7606   31.9529  -77.2110 H         1 UNK         0.3453 
     85 H85       -75.7231   31.7975  -75.7665 H         1 UNK         0.3453 
     86 H86       -73.8654   28.4747  -73.8426 H         1 UNK         0.2984 
     87 H87       -70.4458   27.8734  -72.9946 H         1 UNK         0.0554 
     88 H88       -71.7814   26.4457  -71.5093 H         1 UNK         0.0847 
     89 H89       -72.0706   28.1347  -71.1243 H         1 UNK         0.0847 
     90 H90       -73.2762   27.2227  -72.0186 H         1 UNK         0.0847 
     91 H91       -72.7382   26.5929  -74.4552 H         1 UNK         0.3141 
     92 H92       -70.4006   24.7282  -76.4447 H         1 UNK         0.0743 
     93 H93       -72.2143   23.7623  -74.1764 H         1 UNK         0.0784 
     94 H94       -71.6474   22.7858  -75.5305 H         1 UNK         0.0784 
     95 H95       -70.5018   23.4064  -74.3524 H         1 UNK         0.0784 
     96 H96       -73.2653   24.6498  -76.2608 H         1 UNK         0.3213 
     97 H97       -73.6429   26.5728  -79.3050 H         1 UNK         0.0855 
     98 H98       -74.0685   23.6669  -78.4274 H         1 UNK         0.0814 
     99 H99       -73.0612   24.1913  -79.7700 H         1 UNK         0.0814 
    100 H100      -74.7975   24.4522  -79.8244 H         1 UNK         0.0814 
    101 H101      -75.5379   25.4035  -77.4571 H         1 UNK         0.3105 
    102 H102      -76.3715   28.4894  -75.8618 H         1 UNK         0.0547 
    103 H103      -77.7449   28.5433  -77.9069 H         1 UNK         0.0837 
    104 H104      -77.8697   26.7912  -77.9342 H         1 UNK         0.0837 
    105 H105      -78.6544   27.7058  -76.6569 H         1 UNK         0.0837 
    106 H106      -77.4678   25.9107  -75.5245 H         1 UNK         0.3020 
    107 H107      -75.0614   24.5693  -73.2530 H         1 UNK         0.1245 
    108 H108      -77.3956   24.1702  -72.1927 H         1 UNK         0.0781 
    109 H109      -77.9085   25.6530  -72.9471 H         1 UNK         0.0781 
    110 H110      -77.6185   27.3554  -69.6674 H         1 UNK         0.0836 
    111 H111      -78.6174   26.7170  -70.9367 H         1 UNK         0.0836 
    112 H112      -77.4187   23.5372  -74.5294 H         1 UNK         0.3022 
    113 H113      -75.7346   21.9552  -77.2361 H         1 UNK         0.0747 
    114 H114      -76.7654   19.9438  -76.2126 H         1 UNK         0.0793 
    115 H115      -75.3614   20.4407  -75.2838 H         1 UNK         0.0793 
    116 H116      -76.9749   20.7922  -74.6803 H         1 UNK         0.0793 
    117 H117      -78.4575   21.9200  -76.3492 H         1 UNK         0.3047 
    118 H118      -79.5300   24.8214  -78.1184 H         1 UNK         0.0822 
    119 H119      -81.0674   23.1853  -79.1555 H         1 UNK         0.0807 
    120 H120      -80.0499   21.8426  -78.6325 H         1 UNK         0.0807 
    121 H121      -79.4569   22.9910  -79.8243 H         1 UNK         0.0807 
    122 H122      -81.0742   23.0158  -76.6377 H         1 UNK         0.2946 
    123 H123      -82.0620   23.7705  -74.7404 H         1 UNK         0.1144 
    124 H124      -81.2933   23.0146  -72.4828 H         1 UNK         0.0793 
    125 H125      -79.6460   23.5147  -72.8526 H         1 UNK         0.0793 
    126 H126      -80.3902   22.1953  -73.7455 H         1 UNK         0.0793 
    127 H127      -80.6900   25.7460  -73.0026 H         1 UNK         0.2896 
@<TRIPOS>BOND
     1    1    2 1    
     2    1   67 1    
     3    1   68 1    
     4    1   69 1    
     5    2    3 2    
     6    2    4 am   BACKBONE|DICT|INTERRES
     7    4    5 1    
     8    4   70 1    
     9    5    6 1    
    10    5   65 1    
    11    5   71 1    
    12    6    7 1    
    13    6   72 1    
    14    6   73 1    
    15    7    8 1    
    16    8    9 1    
    17    8   74 1    
    18    8   75 1    
    19    9   10 ar   
    20    9   14 ar   
    21   10   11 ar   
    22   10   76 1    
    23   11   12 ar   
    24   11   48 1    
    25   12   13 ar   
    26   12   77 1    
    27   13   14 ar   
    28   13   15 1    
    29   14   78 1    
    30   15   16 1    
    31   15   79 1    
    32   15   80 1    
    33   16   17 1    
    34   17   18 1    
    35   17   81 1    
    36   17   82 1    
    37   18   19 1    
    38   18   22 1    
    39   18   83 1    
    40   19   20 am   BACKBONE|DICT|INTERRES
    41   19   21 2    
    42   20   84 1    
    43   20   85 1    
    44   22   23 am   BACKBONE|DICT|INTERRES
    45   22   86 1    
    46   23   24 2    
    47   23   25 1    
    48   25   26 1    
    49   25   27 1    
    50   25   87 1    
    51   26   88 1    
    52   26   89 1    
    53   26   90 1    
    54   27   28 am   BACKBONE|DICT|INTERRES
    55   27   91 1    
    56   28   29 2    
    57   28   30 1    
    58   30   31 1    
    59   30   32 1    
    60   30   92 1    
    61   31   93 1    
    62   31   94 1    
    63   31   95 1    
    64   32   33 am   BACKBONE|DICT|INTERRES
    65   32   96 1    
    66   33   34 2    
    67   33   35 1    
    68   35   36 1    
    69   35   37 1    
    70   35   97 1    
    71   36   98 1    
    72   36   99 1    
    73   36  100 1    
    74   37   38 am   BACKBONE|DICT|INTERRES
    75   37  101 1    
    76   38   39 2    
    77   38   40 1    
    78   40   41 1    
    79   40   42 1    
    80   40  102 1    
    81   41  103 1    
    82   41  104 1    
    83   41  105 1    
    84   42   43 am   BACKBONE|DICT|INTERRES
    85   42  106 1    
    86   43   44 2    
    87   43   45 1    
    88   45   46 1    
    89   45   49 1    
    90   45  107 1    
    91   46   47 1    
    92   46  108 1    
    93   46  109 1    
    94   47   48 1    
    95   48  110 1    
    96   48  111 1    
    97   49   50 am   BACKBONE|DICT|INTERRES
    98   49  112 1    
    99   50   51 2    
   100   50   52 1    
   101   52   53 1    
   102   52   54 1    
   103   52  113 1    
   104   53  114 1    
   105   53  115 1    
   106   53  116 1    
   107   54   55 am   BACKBONE|DICT|INTERRES
   108   54  117 1    
   109   55   56 2    
   110   55   57 1    
   111   57   58 1    
   112   57   59 1    
   113   57  118 1    
   114   58  119 1    
   115   58  120 1    
   116   58  121 1    
   117   59   60 am   BACKBONE|DICT|INTERRES
   118   59  122 1    
   119   60   61 2    
   120   60   62 1    
   121   62   63 1    
   122   62   64 1    
   123   62  123 1    
   124   63  124 1    
   125   63  125 1    
   126   63  126 1    
   127   64   65 am   BACKBONE|DICT|INTERRES
   128   64  127 1    
   129   65   66 2    
@<TRIPOS>SUBSTRUCTURE
     1 UNK         1 GROUP             0       ****    0 ROOT    
