@<TRIPOS>MOLECULE
3R135
127   129    1
SMALL
USER_CHARGES


@<TRIPOS>ATOM
      1 CA        -80.5149   21.5982  -71.4104 C.3       0 UNK        -0.1998 
      2 C         -80.2328   23.0597  -71.7223 C.2       0 UNK         0.4909 
      3 O         -79.1712   23.3729  -72.2599 O.2       0 UNK        -0.5240 
      4 N         -81.1825   23.9508  -71.4030 N.am      1 UNK        -0.4739 
      5 CA        -81.1098   25.4067  -71.5950 C.3       1 UNK         0.0864 
      6 C6        -80.0907   26.0769  -70.6321 C.3       11 UNK        -0.0881 
      7 S7        -80.6128   27.7502  -70.1324 S.3       11 UNK        -0.2682 
      8 C8        -79.0160   28.6343  -70.0462 C.3       11 UNK         0.0289 
      9 C9        -78.5513   29.3032  -71.3421 C.ar      11 UNK        -0.0687 
     10 C10       -79.4436   29.6961  -72.3497 C.ar      11 UNK        -0.0823 
     11 C11       -78.9927   30.3894  -73.4785 C.ar      11 UNK        -0.0830 
     12 C12       -77.6334   30.6933  -73.5955 C.ar      11 UNK        -0.1021 
     13 C13       -76.7280   30.2996  -72.6073 C.ar      11 UNK        -0.0753 
     14 C14       -77.1932   29.6069  -71.4859 C.ar      11 UNK        -0.0933 
     15 C15       -75.2572   30.6647  -72.7371 C.3       11 UNK         0.0166 
     16 S16       -74.2576   29.2609  -73.3203 S.3       11 UNK        -0.2615 
     17 C17       -73.4359   28.7343  -71.7748 C.3       11 UNK        -0.0865 
     18 CA        -72.1221   29.5284  -71.5109 C.3       10 UNK         0.0862 
     19 C         -71.5283   29.2830  -70.0892 C.2       10 UNK         0.5551 
     20 N         -70.2229   29.4208  -69.8926 N.am      10 UNK        -0.7319 
     21 O         -72.2596   29.0002  -69.1431 O.2       10 UNK        -0.5018 
     22 N         -71.1678   29.4179  -72.6308 N.am      10 UNK        -0.4509 
     23 C         -70.4711   28.3285  -72.9819 C.2       10 UNK         0.4899 
     24 O         -70.4366   27.2826  -72.3313 O.2       10 UNK        -0.4839 
     25 CA        -69.7275   28.4387  -74.3267 C.3       9 UNK         0.0222 
     26 CB        -68.7217   27.2911  -74.5631 C.3       9 UNK        -0.1966 
     27 N         -70.6784   28.5574  -75.4425 N.am      9 UNK        -0.4218 
     28 C         -71.6163   27.6668  -75.8065 C.2       9 UNK         0.5020 
     29 O         -71.7450   26.5542  -75.2885 O.2       9 UNK        -0.5274 
     30 CA        -72.6016   28.1192  -76.9052 C.3       8 UNK         0.0270 
     31 CB        -71.9485   28.9609  -78.0255 C.3       8 UNK        -0.1976 
     32 N         -73.3656   26.9901  -77.4465 N.am      8 UNK        -0.4313 
     33 C         -72.9147   25.9789  -78.2025 C.2       8 UNK         0.5041 
     34 O         -71.7859   25.9255  -78.6949 O.2       8 UNK        -0.5577 
     35 CA        -73.8827   24.8072  -78.4428 C.3       7 UNK         0.0284 
     36 CB        -73.7085   23.7438  -77.3466 C.3       7 UNK        -0.1958 
     37 N         -75.2921   25.2051  -78.5149 N.am      7 UNK        -0.4454 
     38 C         -75.8364   25.8773  -79.5390 C.2       7 UNK         0.5089 
     39 O         -75.2043   26.2463  -80.5296 O.2       7 UNK        -0.5125 
     40 CA        -77.3436   26.1777  -79.4573 C.3       6 UNK         0.0408 
     41 CB        -78.1661   24.9383  -79.8440 C.3       6 UNK        -0.1791 
     42 N         -77.7634   26.6493  -78.1375 N.am      6 UNK        -0.4762 
     43 C         -77.4332   27.8375  -77.6104 C.2       6 UNK         0.5007 
     44 O         -76.7711   28.6898  -78.2041 O.2       6 UNK        -0.5032 
     45 CA        -77.8964   28.1027  -76.1617 C.3       5 UNK         0.0783 
     46 C46       -79.3716   28.5804  -76.1135 C.3       11 UNK        -0.0857 
     47 S47       -79.5014   30.3922  -76.2437 S.3       11 UNK        -0.2512 
     48 C48       -79.9877   30.8462  -74.5430 C.3       11 UNK         0.0225 
     49 N         -77.6629   26.9583  -75.2761 N.am      5 UNK        -0.4615 
     50 C         -76.4665   26.3966  -75.0523 C.2       4 UNK         0.5053 
     51 O         -75.4183   26.7892  -75.5583 O.2       4 UNK        -0.5105 
     52 CA        -76.4422   25.1434  -74.1657 C.3       4 UNK         0.0263 
     53 CB        -76.4916   25.5378  -72.6822 C.3       4 UNK        -0.1981 
     54 N         -77.5358   24.2223  -74.4887 N.am      4 UNK        -0.4224 
     55 C         -77.6842   23.6222  -75.6808 C.2       3 UNK         0.4895 
     56 O         -76.8736   23.7148  -76.6022 O.2       3 UNK        -0.5091 
     57 CA        -78.9856   22.8413  -75.9141 C.3       3 UNK         0.0250 
     58 CB        -78.9424   21.4643  -75.2326 C.3       3 UNK        -0.1996 
     59 N         -80.1604   23.5951  -75.4715 N.am      3 UNK        -0.4254 
     60 C         -80.5874   24.7302  -76.0456 C.2       2 UNK         0.5004 
     61 O         -80.0656   25.2333  -77.0400 O.2       2 UNK        -0.5226 
     62 CA        -81.7804   25.4429  -75.3867 C.3       2 UNK         0.0269 
     63 CB        -83.1032   24.9570  -75.9994 C.3       2 UNK        -0.1926 
     64 N         -81.8250   25.2765  -73.9306 N.am      2 UNK        -0.4687 
     65 C         -80.9091   25.7699  -73.0838 C.2       1 UNK         0.5165 
     66 O         -79.9281   26.4162  -73.4536 O.2       1 UNK        -0.5079 
     67 H67       -80.5697   21.0204  -72.3324 H         1 UNK         0.0900 
     68 H68       -79.7138   21.1862  -70.7974 H         1 UNK         0.0900 
     69 H69       -81.4534   21.4694  -70.8717 H         1 UNK         0.0900 
     70 H70       -82.0368   23.6181  -70.9765 H         1 UNK         0.2959 
     71 H71       -82.1042   25.7735  -71.3340 H         1 UNK         0.1079 
     72 H72       -80.0097   25.4957  -69.7122 H         1 UNK         0.0837 
     73 H73       -79.0852   26.0909  -71.0504 H         1 UNK         0.0837 
     74 H74       -79.1087   29.4135  -69.2887 H         1 UNK         0.0685 
     75 H75       -78.2505   27.9475  -69.6814 H         1 UNK         0.0685 
     76 H76       -80.4985   29.4853  -72.2494 H         1 UNK         0.1434 
     77 H77       -77.2813   31.2424  -74.4581 H         1 UNK         0.1329 
     78 H78       -76.4966   29.3241  -70.7092 H         1 UNK         0.1335 
     79 H79       -74.8804   31.0353  -71.7828 H         1 UNK         0.0680 
     80 H80       -75.1357   31.4872  -73.4436 H         1 UNK         0.0680 
     81 H81       -74.1390   28.8468  -70.9485 H         1 UNK         0.1032 
     82 H82       -73.2236   27.6660  -71.8431 H         1 UNK         0.1032 
     83 H83       -72.3971   30.5834  -71.4883 H         1 UNK         0.0461 
     84 H84       -69.8420   29.2727  -68.9714 H         1 UNK         0.3453 
     85 H85       -69.6150   29.6559  -70.6608 H         1 UNK         0.3453 
     86 H86       -71.1186   30.2284  -73.2305 H         1 UNK         0.2984 
     87 H87       -69.1578   29.3689  -74.3001 H         1 UNK         0.0554 
     88 H88       -67.9730   27.2634  -73.7705 H         1 UNK         0.0847 
     89 H89       -68.1912   27.4171  -75.5068 H         1 UNK         0.0847 
     90 H90       -69.2072   26.3150  -74.5807 H         1 UNK         0.0847 
     91 H91       -70.6661   29.4423  -75.9300 H         1 UNK         0.3141 
     92 H92       -73.3401   28.7486  -76.4061 H         1 UNK         0.0743 
     93 H93       -71.6193   29.9317  -77.6546 H         1 UNK         0.0784 
     94 H94       -71.0794   28.4625  -78.4561 H         1 UNK         0.0784 
     95 H95       -72.6545   29.1551  -78.8333 H         1 UNK         0.0784 
     96 H96       -74.2709   26.8615  -76.9959 H         1 UNK         0.3213 
     97 H97       -73.6143   24.3523  -79.3989 H         1 UNK         0.0855 
     98 H98       -73.9818   24.1332  -76.3649 H         1 UNK         0.0814 
     99 H99       -72.6719   23.4094  -77.2874 H         1 UNK         0.0814 
    100 H100      -74.3234   22.8652  -77.5425 H         1 UNK         0.0814 
    101 H101      -75.8960   24.8892  -77.7591 H         1 UNK         0.3105 
    102 H102      -77.5653   26.9659  -80.1798 H         1 UNK         0.0547 
    103 H103      -79.2323   25.1638  -79.8716 H         1 UNK         0.0837 
    104 H104      -77.8849   24.5751  -80.8333 H         1 UNK         0.0837 
    105 H105      -78.0183   24.1186  -79.1399 H         1 UNK         0.0837 
    106 H106      -78.3635   26.0287  -77.5996 H         1 UNK         0.3020 
    107 H107      -77.2542   28.8953  -75.7717 H         1 UNK         0.1245 
    108 H108      -79.8423   28.2823  -75.1777 H         1 UNK         0.0781 
    109 H109      -79.9783   28.1194  -76.8956 H         1 UNK         0.0781 
    110 H110      -80.9798   30.4366  -74.3464 H         1 UNK         0.0836 
    111 H111      -80.0879   31.9307  -74.4851 H         1 UNK         0.0836 
    112 H112      -78.4680   26.6046  -74.7672 H         1 UNK         0.3022 
    113 H113      -75.5031   24.6171  -74.3480 H         1 UNK         0.0747 
    114 H114      -76.5267   24.6629  -72.0331 H         1 UNK         0.0793 
    115 H115      -75.6091   26.1176  -72.4081 H         1 UNK         0.0793 
    116 H116      -77.3605   26.1577  -72.4655 H         1 UNK         0.0793 
    117 H117      -78.2324   24.0631  -73.7634 H         1 UNK         0.3047 
    118 H118      -79.0838   22.6791  -76.9899 H         1 UNK         0.0822 
    119 H119      -78.1092   20.8722  -75.6136 H         1 UNK         0.0807 
    120 H120      -79.8542   20.8976  -75.4217 H         1 UNK         0.0807 
    121 H121      -78.8126   21.5442  -74.1538 H         1 UNK         0.0807 
    122 H122      -80.6279   23.2733  -74.6374 H         1 UNK         0.2946 
    123 H123      -81.6770   26.5092  -75.5991 H         1 UNK         0.1144 
    124 H124      -83.9521   25.5172  -75.6068 H         1 UNK         0.0793 
    125 H125      -83.2772   23.8986  -75.8017 H         1 UNK         0.0793 
    126 H126      -83.1027   25.0906  -77.0823 H         1 UNK         0.0793 
    127 H127      -82.5898   24.7336  -73.5555 H         1 UNK         0.2896 
@<TRIPOS>BOND
     1    1    2 1    
     2    1   67 1    
     3    1   68 1    
     4    1   69 1    
     5    2    3 2    
     6    2    4 am   BACKBONE|DICT|INTERRES
     7    4    5 1    
     8    4   70 1    
     9    5    6 1    
    10    5   65 1    
    11    5   71 1    
    12    6    7 1    
    13    6   72 1    
    14    6   73 1    
    15    7    8 1    
    16    8    9 1    
    17    8   74 1    
    18    8   75 1    
    19    9   10 ar   
    20    9   14 ar   
    21   10   11 ar   
    22   10   76 1    
    23   11   12 ar   
    24   11   48 1    
    25   12   13 ar   
    26   12   77 1    
    27   13   14 ar   
    28   13   15 1    
    29   14   78 1    
    30   15   16 1    
    31   15   79 1    
    32   15   80 1    
    33   16   17 1    
    34   17   18 1    
    35   17   81 1    
    36   17   82 1    
    37   18   19 1    
    38   18   22 1    
    39   18   83 1    
    40   19   20 am   BACKBONE|DICT|INTERRES
    41   19   21 2    
    42   20   84 1    
    43   20   85 1    
    44   22   23 am   BACKBONE|DICT|INTERRES
    45   22   86 1    
    46   23   24 2    
    47   23   25 1    
    48   25   26 1    
    49   25   27 1    
    50   25   87 1    
    51   26   88 1    
    52   26   89 1    
    53   26   90 1    
    54   27   28 am   BACKBONE|DICT|INTERRES
    55   27   91 1    
    56   28   29 2    
    57   28   30 1    
    58   30   31 1    
    59   30   32 1    
    60   30   92 1    
    61   31   93 1    
    62   31   94 1    
    63   31   95 1    
    64   32   33 am   BACKBONE|DICT|INTERRES
    65   32   96 1    
    66   33   34 2    
    67   33   35 1    
    68   35   36 1    
    69   35   37 1    
    70   35   97 1    
    71   36   98 1    
    72   36   99 1    
    73   36  100 1    
    74   37   38 am   BACKBONE|DICT|INTERRES
    75   37  101 1    
    76   38   39 2    
    77   38   40 1    
    78   40   41 1    
    79   40   42 1    
    80   40  102 1    
    81   41  103 1    
    82   41  104 1    
    83   41  105 1    
    84   42   43 am   BACKBONE|DICT|INTERRES
    85   42  106 1    
    86   43   44 2    
    87   43   45 1    
    88   45   46 1    
    89   45   49 1    
    90   45  107 1    
    91   46   47 1    
    92   46  108 1    
    93   46  109 1    
    94   47   48 1    
    95   48  110 1    
    96   48  111 1    
    97   49   50 am   BACKBONE|DICT|INTERRES
    98   49  112 1    
    99   50   51 2    
   100   50   52 1    
   101   52   53 1    
   102   52   54 1    
   103   52  113 1    
   104   53  114 1    
   105   53  115 1    
   106   53  116 1    
   107   54   55 am   BACKBONE|DICT|INTERRES
   108   54  117 1    
   109   55   56 2    
   110   55   57 1    
   111   57   58 1    
   112   57   59 1    
   113   57  118 1    
   114   58  119 1    
   115   58  120 1    
   116   58  121 1    
   117   59   60 am   BACKBONE|DICT|INTERRES
   118   59  122 1    
   119   60   61 2    
   120   60   62 1    
   121   62   63 1    
   122   62   64 1    
   123   62  123 1    
   124   63  124 1    
   125   63  125 1    
   126   63  126 1    
   127   64   65 am   BACKBONE|DICT|INTERRES
   128   64  127 1    
   129   65   66 2    
@<TRIPOS>SUBSTRUCTURE
     1 UNK         1 GROUP             0       ****    0 ROOT    
