@<TRIPOS>MOLECULE
3R135
127   129    1
SMALL
USER_CHARGES


@<TRIPOS>ATOM
      1 CA        -84.0082   24.6958  -74.8413 C.3       0 UNK        -0.1998 
      2 C         -82.9954   25.8216  -74.7047 C.2       0 UNK         0.4909 
      3 O         -82.6099   26.4219  -75.7082 O.2       0 UNK        -0.5240 
      4 N         -82.5575   26.1167  -73.4732 N.am      1 UNK        -0.4739 
      5 CA        -81.5984   27.1848  -73.1709 C.3       1 UNK         0.0864 
      6 C6        -81.5016   27.4593  -71.6509 C.3       11 UNK        -0.0881 
      7 S7        -81.0896   29.2035  -71.3104 S.3       11 UNK        -0.2682 
      8 C8        -79.8609   29.0512  -69.9786 C.3       11 UNK         0.0289 
      9 C9        -78.4698   28.7312  -70.5063 C.ar      11 UNK        -0.0687 
     10 C10       -77.9643   27.4304  -70.4334 C.ar      11 UNK        -0.0823 
     11 C11       -76.6614   27.1475  -70.8572 C.ar      11 UNK        -0.0830 
     12 C12       -75.8628   28.1782  -71.3641 C.ar      11 UNK        -0.1021 
     13 C13       -76.3523   29.4872  -71.4234 C.ar      11 UNK        -0.0753 
     14 C14       -77.6601   29.7543  -71.0074 C.ar      11 UNK        -0.0933 
     15 C15       -75.4478   30.6281  -71.8608 C.3       11 UNK         0.0166 
     16 S16       -75.4790   30.8804  -73.6593 S.3       11 UNK        -0.2615 
     17 C17       -74.4537   32.3869  -73.7986 C.3       11 UNK        -0.0865 
     18 CA        -73.0355   32.1209  -74.3696 C.3       10 UNK         0.0862 
     19 C         -72.2651   33.4599  -74.5692 C.2       10 UNK         0.5551 
     20 N         -71.1628   33.7058  -73.8713 N.am      10 UNK        -0.7319 
     21 O         -72.6777   34.2899  -75.3756 O.2       10 UNK        -0.5018 
     22 N         -72.3148   31.0949  -73.5951 N.am      10 UNK        -0.4509 
     23 C         -71.2587   30.4041  -74.0401 C.2       10 UNK         0.4899 
     24 O         -70.7284   30.5955  -75.1354 O.2       10 UNK        -0.4839 
     25 CA        -70.6840   29.3032  -73.1259 C.3       9 UNK         0.0222 
     26 CB        -71.2926   29.2525  -71.7037 C.3       9 UNK        -0.1966 
     27 N         -70.7611   27.9987  -73.7941 N.am      9 UNK        -0.4218 
     28 C         -71.8782   27.3590  -74.1706 C.2       9 UNK         0.5020 
     29 O         -73.0200   27.7037  -73.8553 O.2       9 UNK        -0.5274 
     30 CA        -71.6834   26.1059  -75.0408 C.3       8 UNK         0.0270 
     31 CB        -71.6690   24.8413  -74.1679 C.3       8 UNK        -0.1976 
     32 N         -72.7488   26.0062  -76.0424 N.am      8 UNK        -0.4313 
     33 C         -72.8723   26.8409  -77.0869 C.2       8 UNK         0.5041 
     34 O         -72.0056   27.6609  -77.3975 O.2       8 UNK        -0.5577 
     35 CA        -74.1795   26.7854  -77.9051 C.3       7 UNK         0.0284 
     36 CB        -73.9871   27.2089  -79.3773 C.3       7 UNK        -0.1958 
     37 N         -74.8941   25.5095  -77.8119 N.am      7 UNK        -0.4454 
     38 C         -74.4818   24.3057  -78.2336 C.2       7 UNK         0.5089 
     39 O         -73.4155   24.1084  -78.8187 O.2       7 UNK        -0.5125 
     40 CA        -75.4246   23.1236  -77.9278 C.3       6 UNK         0.0408 
     41 CB        -74.7184   21.7557  -78.0321 C.3       6 UNK        -0.1791 
     42 N         -76.1171   23.2434  -76.6373 N.am      6 UNK        -0.4762 
     43 C         -75.5587   23.3690  -75.4211 C.2       6 UNK         0.5007 
     44 O         -74.3422   23.4406  -75.2498 O.2       6 UNK        -0.5032 
     45 CA        -76.4875   23.4352  -74.1860 C.3       5 UNK         0.0783 
     46 C46       -76.1522   24.6484  -73.2833 C.3       11 UNK        -0.0857 
     47 S47       -76.9962   24.5110  -71.6751 S.3       11 UNK        -0.2512 
     48 C48       -76.0973   25.7441  -70.6859 C.3       11 UNK         0.0225 
     49 N         -77.9099   23.4133  -74.5414 N.am      5 UNK        -0.4615 
     50 C         -78.6112   22.3227  -74.8715 C.2       4 UNK         0.5053 
     51 O         -78.1595   21.1784  -74.8374 O.2       4 UNK        -0.5105 
     52 CA        -80.0407   22.5614  -75.3841 C.3       4 UNK         0.0263 
     53 CB        -81.0462   22.5466  -74.2222 C.3       4 UNK        -0.1981 
     54 N         -80.1512   23.8157  -76.1402 N.am      4 UNK        -0.4224 
     55 C         -79.6014   24.0105  -77.3494 C.2       3 UNK         0.4895 
     56 O         -79.0185   23.1300  -77.9817 O.2       3 UNK        -0.5091 
     57 CA        -79.6604   25.4308  -77.9344 C.3       3 UNK         0.0250 
     58 CB        -80.9693   25.6491  -78.7091 C.3       3 UNK        -0.1996 
     59 N         -79.5014   26.4686  -76.9126 N.am      3 UNK        -0.4254 
     60 C         -78.3452   26.7315  -76.2826 C.2       2 UNK         0.5004 
     61 O         -77.2905   26.1473  -76.5252 O.2       2 UNK        -0.5226 
     62 CA        -78.3650   27.8028  -75.1772 C.3       2 UNK         0.0269 
     63 CB        -78.0132   29.1765  -75.7665 C.3       2 UNK        -0.1926 
     64 N         -79.6413   27.8971  -74.4638 N.am      2 UNK        -0.4687 
     65 C         -80.2195   26.8909  -73.7948 C.2       1 UNK         0.5165 
     66 O         -79.7305   25.7626  -73.6971 O.2       1 UNK        -0.5079 
     67 H67       -84.9907   25.1050  -75.0746 H         1 UNK         0.0900 
     68 H68       -83.7201   24.0260  -75.6511 H         1 UNK         0.0900 
     69 H69       -84.0904   24.1093  -73.9264 H         1 UNK         0.0900 
     70 H70       -82.8790   25.5732  -72.6850 H         1 UNK         0.2959 
     71 H71       -82.0020   28.0787  -73.6530 H         1 UNK         0.1079 
     72 H72       -80.7933   26.7844  -71.1665 H         1 UNK         0.0837 
     73 H73       -82.4632   27.2722  -71.1702 H         1 UNK         0.0837 
     74 H74       -80.1883   28.2987  -69.2592 H         1 UNK         0.0685 
     75 H75       -79.8269   29.9938  -69.4302 H         1 UNK         0.0685 
     76 H76       -78.5750   26.6368  -70.0249 H         1 UNK         0.1434 
     77 H77       -74.8485   27.9724  -71.6801 H         1 UNK         0.1329 
     78 H78       -78.0397   30.7664  -71.0446 H         1 UNK         0.1335 
     79 H79       -74.4248   30.4316  -71.5391 H         1 UNK         0.0680 
     80 H80       -75.7532   31.5495  -71.3622 H         1 UNK         0.0680 
     81 H81       -74.3861   32.8829  -72.8287 H         1 UNK         0.1032 
     82 H82       -74.9930   33.0814  -74.4460 H         1 UNK         0.1032 
     83 H83       -73.1716   31.7121  -75.3730 H         1 UNK         0.0461 
     84 H84       -70.6713   34.5745  -74.0112 H         1 UNK         0.3453 
     85 H85       -70.8157   33.0281  -73.2122 H         1 UNK         0.3453 
     86 H86       -72.7015   30.8611  -72.6945 H         1 UNK         0.2984 
     87 H87       -69.6221   29.5275  -73.0151 H         1 UNK         0.0554 
     88 H88       -71.1579   30.2015  -71.1833 H         1 UNK         0.0847 
     89 H89       -70.8023   28.4891  -71.0997 H         1 UNK         0.0847 
     90 H90       -72.3586   29.0253  -71.7097 H         1 UNK         0.0847 
     91 H91       -69.8772   27.6326  -74.1202 H         1 UNK         0.3141 
     92 H92       -70.7283   26.1767  -75.5658 H         1 UNK         0.0743 
     93 H93       -70.8406   24.8653  -73.4588 H         1 UNK         0.0784 
     94 H94       -71.5535   23.9416  -74.7727 H         1 UNK         0.0784 
     95 H95       -72.5883   24.7408  -73.5899 H         1 UNK         0.0784 
     96 H96       -73.4873   25.3388  -75.8529 H         1 UNK         0.3213 
     97 H97       -74.8401   27.5200  -77.4417 H         1 UNK         0.0855 
     98 H98       -73.2748   26.5655  -79.8944 H         1 UNK         0.0814 
     99 H99       -73.6085   28.2295  -79.4446 H         1 UNK         0.0814 
    100 H100      -74.9286   27.1785  -79.9255 H         1 UNK         0.0814 
    101 H101      -75.7925   25.5632  -77.3293 H         1 UNK         0.3105 
    102 H102      -76.2025   23.1529  -78.6919 H         1 UNK         0.0547 
    103 H103      -75.4093   20.9367  -77.8329 H         1 UNK         0.0837 
    104 H104      -73.8892   21.6747  -77.3286 H         1 UNK         0.0837 
    105 H105      -74.3127   21.5991  -79.0322 H         1 UNK         0.0837 
    106 H106      -77.1277   23.2291  -76.6913 H         1 UNK         0.3020 
    107 H107      -76.2678   22.5290  -73.6166 H         1 UNK         0.1245 
    108 H108      -76.4363   25.5864  -73.7619 H         1 UNK         0.0781 
    109 H109      -75.0790   24.7103  -73.0945 H         1 UNK         0.0781 
    110 H110      -75.0335   25.7120  -70.9267 H         1 UNK         0.0836 
    111 H111      -76.1754   25.4658  -69.6340 H         1 UNK         0.0836 
    112 H112      -78.3889   24.3066  -74.5186 H         1 UNK         0.3022 
    113 H113      -80.2898   21.7362  -76.0550 H         1 UNK         0.0747 
    114 H114      -82.0712   22.5709  -74.5883 H         1 UNK         0.0793 
    115 H115      -80.9422   21.6363  -73.6300 H         1 UNK         0.0793 
    116 H116      -80.9040   23.3900  -73.5463 H         1 UNK         0.0793 
    117 H117      -80.5642   24.6057  -75.6632 H         1 UNK         0.3047 
    118 H118      -78.8332   25.5285  -78.6413 H         1 UNK         0.0822 
    119 H119      -81.0035   26.6407  -79.1605 H         1 UNK         0.0807 
    120 H120      -81.8453   25.5405  -78.0695 H         1 UNK         0.0807 
    121 H121      -81.0671   24.9226  -79.5170 H         1 UNK         0.0807 
    122 H122      -80.3346   26.9698  -76.6333 H         1 UNK         0.2946 
    123 H123      -77.6003   27.5383  -74.4436 H         1 UNK         0.1144 
    124 H124      -77.9939   29.9452  -74.9941 H         1 UNK         0.0793 
    125 H125      -78.7280   29.4862  -76.5299 H         1 UNK         0.0793 
    126 H126      -77.0251   29.1596  -76.2291 H         1 UNK         0.0793 
    127 H127      -80.1046   28.7942  -74.4885 H         1 UNK         0.2896 
@<TRIPOS>BOND
     1    1    2 1    
     2    1   67 1    
     3    1   68 1    
     4    1   69 1    
     5    2    3 2    
     6    2    4 am   BACKBONE|DICT|INTERRES
     7    4    5 1    
     8    4   70 1    
     9    5    6 1    
    10    5   65 1    
    11    5   71 1    
    12    6    7 1    
    13    6   72 1    
    14    6   73 1    
    15    7    8 1    
    16    8    9 1    
    17    8   74 1    
    18    8   75 1    
    19    9   10 ar   
    20    9   14 ar   
    21   10   11 ar   
    22   10   76 1    
    23   11   12 ar   
    24   11   48 1    
    25   12   13 ar   
    26   12   77 1    
    27   13   14 ar   
    28   13   15 1    
    29   14   78 1    
    30   15   16 1    
    31   15   79 1    
    32   15   80 1    
    33   16   17 1    
    34   17   18 1    
    35   17   81 1    
    36   17   82 1    
    37   18   19 1    
    38   18   22 1    
    39   18   83 1    
    40   19   20 am   BACKBONE|DICT|INTERRES
    41   19   21 2    
    42   20   84 1    
    43   20   85 1    
    44   22   23 am   BACKBONE|DICT|INTERRES
    45   22   86 1    
    46   23   24 2    
    47   23   25 1    
    48   25   26 1    
    49   25   27 1    
    50   25   87 1    
    51   26   88 1    
    52   26   89 1    
    53   26   90 1    
    54   27   28 am   BACKBONE|DICT|INTERRES
    55   27   91 1    
    56   28   29 2    
    57   28   30 1    
    58   30   31 1    
    59   30   32 1    
    60   30   92 1    
    61   31   93 1    
    62   31   94 1    
    63   31   95 1    
    64   32   33 am   BACKBONE|DICT|INTERRES
    65   32   96 1    
    66   33   34 2    
    67   33   35 1    
    68   35   36 1    
    69   35   37 1    
    70   35   97 1    
    71   36   98 1    
    72   36   99 1    
    73   36  100 1    
    74   37   38 am   BACKBONE|DICT|INTERRES
    75   37  101 1    
    76   38   39 2    
    77   38   40 1    
    78   40   41 1    
    79   40   42 1    
    80   40  102 1    
    81   41  103 1    
    82   41  104 1    
    83   41  105 1    
    84   42   43 am   BACKBONE|DICT|INTERRES
    85   42  106 1    
    86   43   44 2    
    87   43   45 1    
    88   45   46 1    
    89   45   49 1    
    90   45  107 1    
    91   46   47 1    
    92   46  108 1    
    93   46  109 1    
    94   47   48 1    
    95   48  110 1    
    96   48  111 1    
    97   49   50 am   BACKBONE|DICT|INTERRES
    98   49  112 1    
    99   50   51 2    
   100   50   52 1    
   101   52   53 1    
   102   52   54 1    
   103   52  113 1    
   104   53  114 1    
   105   53  115 1    
   106   53  116 1    
   107   54   55 am   BACKBONE|DICT|INTERRES
   108   54  117 1    
   109   55   56 2    
   110   55   57 1    
   111   57   58 1    
   112   57   59 1    
   113   57  118 1    
   114   58  119 1    
   115   58  120 1    
   116   58  121 1    
   117   59   60 am   BACKBONE|DICT|INTERRES
   118   59  122 1    
   119   60   61 2    
   120   60   62 1    
   121   62   63 1    
   122   62   64 1    
   123   62  123 1    
   124   63  124 1    
   125   63  125 1    
   126   63  126 1    
   127   64   65 am   BACKBONE|DICT|INTERRES
   128   64  127 1    
   129   65   66 2    
@<TRIPOS>SUBSTRUCTURE
     1 UNK         1 GROUP             0       ****    0 ROOT    
