@<TRIPOS>MOLECULE
3R135
127   129    1
SMALL
USER_CHARGES


@<TRIPOS>ATOM
      1 CA        -81.5565   22.9913  -71.8890 C.3       0 UNK        -0.1998 
      2 C         -80.9963   24.1720  -72.6656 C.2       0 UNK         0.4909 
      3 O         -79.7985   24.2031  -72.9403 O.2       0 UNK        -0.5240 
      4 N         -81.8570   25.1298  -73.0360 N.am      1 UNK        -0.4739 
      5 CA        -81.5376   26.3804  -73.7436 C.3       1 UNK         0.0864 
      6 C6        -80.7639   27.4134  -72.8806 C.3       11 UNK        -0.0881 
      7 S7        -81.4560   27.7573  -71.2251 S.3       11 UNK        -0.2682 
      8 C8        -79.9415   27.8753  -70.1889 C.3       11 UNK         0.0289 
      9 C9        -78.9092   28.9392  -70.5927 C.ar      11 UNK        -0.0687 
     10 C10       -79.1821   29.9278  -71.5455 C.ar      11 UNK        -0.0823 
     11 C11       -78.1947   30.8230  -71.9605 C.ar      11 UNK        -0.0830 
     12 C12       -76.9367   30.7859  -71.3572 C.ar      11 UNK        -0.1021 
     13 C13       -76.6584   29.8519  -70.3546 C.ar      11 UNK        -0.0753 
     14 C14       -77.6442   28.9249  -69.9884 C.ar      11 UNK        -0.0933 
     15 C15       -75.3049   29.8905  -69.6485 C.3       11 UNK         0.0166 
     16 S16       -74.3789   28.3215  -69.7077 S.3       11 UNK        -0.2615 
     17 C17       -74.1217   28.0781  -71.4963 C.3       11 UNK        -0.0865 
     18 CA        -72.7989   28.6477  -72.0679 C.3       10 UNK         0.0862 
     19 C         -71.5503   27.9107  -71.5095 C.2       10 UNK         0.5551 
     20 N         -70.7675   28.5621  -70.6601 N.am      10 UNK        -0.7319 
     21 O         -71.3093   26.7448  -71.8158 O.2       10 UNK        -0.5018 
     22 N         -72.8508   28.5870  -73.5328 N.am      10 UNK        -0.4509 
     23 C         -71.9887   29.1475  -74.3879 C.2       10 UNK         0.4899 
     24 O         -71.0549   29.8748  -74.0457 O.2       10 UNK        -0.4839 
     25 CA        -72.2422   28.8484  -75.8801 C.3       9 UNK         0.0222 
     26 CB        -71.1173   29.3556  -76.8082 C.3       9 UNK        -0.1966 
     27 N         -72.5474   27.4307  -76.1250 N.am      9 UNK        -0.4218 
     28 C         -71.7299   26.3840  -75.9335 C.2       9 UNK         0.5020 
     29 O         -70.5492   26.4854  -75.5962 O.2       9 UNK        -0.5274 
     30 CA        -72.3130   24.9731  -76.1376 C.3       8 UNK         0.0270 
     31 CB        -72.6008   24.3132  -74.7793 C.3       8 UNK        -0.1976 
     32 N         -73.5143   24.9118  -76.9832 N.am      8 UNK        -0.4313 
     33 C         -73.4842   25.0260  -78.3194 C.2       8 UNK         0.5041 
     34 O         -72.4635   25.2985  -78.9534 O.2       8 UNK        -0.5577 
     35 CA        -74.7898   24.7645  -79.0904 C.3       7 UNK         0.0284 
     36 CB        -75.2757   23.3132  -78.9407 C.3       7 UNK        -0.1958 
     37 N         -75.8585   25.7046  -78.7433 N.am      7 UNK        -0.4454 
     38 C         -75.9318   26.9449  -79.2473 C.2       7 UNK         0.5089 
     39 O         -75.0951   27.4232  -80.0143 O.2       7 UNK        -0.5125 
     40 CA        -77.1416   27.8028  -78.8452 C.3       6 UNK         0.0408 
     41 CB        -78.4299   27.3541  -79.5538 C.3       6 UNK        -0.1791 
     42 N         -77.3357   27.8680  -77.3947 N.am      6 UNK        -0.4762 
     43 C         -76.5663   28.6248  -76.5983 C.2       6 UNK         0.5007 
     44 O         -75.5778   29.2443  -76.9905 O.2       6 UNK        -0.5032 
     45 CA        -76.9815   28.7311  -75.1232 C.3       5 UNK         0.0783 
     46 C46       -78.2109   29.6617  -74.9455 C.3       11 UNK        -0.0857 
     47 S47       -77.6972   31.3926  -74.6509 S.3       11 UNK        -0.2512 
     48 C48       -78.4993   31.8231  -73.0679 C.3       11 UNK         0.0225 
     49 N         -77.1543   27.4121  -74.5064 N.am      5 UNK        -0.4615 
     50 C         -76.1159   26.6626  -74.1164 C.2       4 UNK         0.5053 
     51 O         -74.9478   26.9552  -74.3637 O.2       4 UNK        -0.5105 
     52 CA        -76.4000   25.4002  -73.2926 C.3       4 UNK         0.0263 
     53 CB        -77.0030   25.7197  -71.9151 C.3       4 UNK        -0.1981 
     54 N         -77.2433   24.4448  -73.9981 N.am      4 UNK        -0.4224 
     55 C         -76.8229   23.6948  -75.0225 C.2       3 UNK         0.4895 
     56 O         -75.7027   23.7827  -75.5232 O.2       3 UNK        -0.5091 
     57 CA        -77.8266   22.6793  -75.5837 C.3       3 UNK         0.0250 
     58 CB        -78.0619   21.5238  -74.5964 C.3       3 UNK        -0.1996 
     59 N         -79.0992   23.3124  -75.9217 N.am      3 UNK        -0.4254 
     60 C         -79.2664   24.1383  -76.9620 C.2       2 UNK         0.5004 
     61 O         -78.3674   24.4337  -77.7492 O.2       2 UNK        -0.5226 
     62 CA        -80.6665   24.7517  -77.1380 C.3       2 UNK         0.0269 
     63 CB        -81.5944   23.7809  -77.8852 C.3       2 UNK        -0.1926 
     64 N         -81.2815   25.1419  -75.8644 N.am      2 UNK        -0.4687 
     65 C         -80.8268   26.1455  -75.1005 C.2       1 UNK         0.5165 
     66 O         -79.8656   26.8481  -75.4250 O.2       1 UNK        -0.5079 
     67 H67       -81.3678   22.0641  -72.4292 H         1 UNK         0.0900 
     68 H68       -81.0720   22.9231  -70.9155 H         1 UNK         0.0900 
     69 H69       -82.6307   23.0801  -71.7285 H         1 UNK         0.0900 
     70 H70       -82.8292   25.0285  -72.7792 H         1 UNK         0.2959 
     71 H71       -82.4990   26.8310  -73.9955 H         1 UNK         0.1079 
     72 H72       -79.7260   27.1104  -72.7690 H         1 UNK         0.0837 
     73 H73       -80.7463   28.3617  -73.4174 H         1 UNK         0.0837 
     74 H74       -80.2505   28.0720  -69.1616 H         1 UNK         0.0685 
     75 H75       -79.4608   26.8961  -70.1807 H         1 UNK         0.0685 
     76 H76       -80.1592   29.9968  -71.9979 H         1 UNK         0.1434 
     77 H77       -76.1796   31.4946  -71.6643 H         1 UNK         0.1329 
     78 H78       -77.4232   28.1899  -69.2263 H         1 UNK         0.1335 
     79 H79       -75.4689   30.1547  -68.6030 H         1 UNK         0.0680 
     80 H80       -74.6730   30.6773  -70.0637 H         1 UNK         0.0680 
     81 H81       -74.1705   27.0058  -71.6933 H         1 UNK         0.1032 
     82 H82       -74.9695   28.5155  -72.0245 H         1 UNK         0.1032 
     83 H83       -72.7392   29.7032  -71.7952 H         1 UNK         0.0461 
     84 H84       -70.9675   29.5140  -70.3956 H         1 UNK         0.3453 
     85 H85       -69.9608   28.0942  -70.2782 H         1 UNK         0.3453 
     86 H86       -73.5671   27.9719  -73.9163 H         1 UNK         0.2984 
     87 H87       -73.1433   29.4013  -76.1420 H         1 UNK         0.0554 
     88 H88       -71.0004   30.4365  -76.7216 H         1 UNK         0.0847 
     89 H89       -71.3372   29.1367  -77.8531 H         1 UNK         0.0847 
     90 H90       -70.1535   28.9074  -76.5661 H         1 UNK         0.0847 
     91 H91       -73.5130   27.2234  -76.3440 H         1 UNK         0.3141 
     92 H92       -71.5361   24.3807  -76.6261 H         1 UNK         0.0743 
     93 H93       -73.3570   24.8605  -74.2192 H         1 UNK         0.0784 
     94 H94       -72.9477   23.2868  -74.8993 H         1 UNK         0.0784 
     95 H95       -71.7024   24.2831  -74.1610 H         1 UNK         0.0784 
     96 H96       -74.3818   24.6391  -76.5219 H         1 UNK         0.3213 
     97 H97       -74.5580   24.8966  -80.1501 H         1 UNK         0.0855 
     98 H98       -75.5885   23.0825  -77.9258 H         1 UNK         0.0814 
     99 H99       -74.4862   22.6088  -79.2056 H         1 UNK         0.0814 
    100 H100      -76.1223   23.1133  -79.5977 H         1 UNK         0.0814 
    101 H101      -76.6187   25.3582  -78.1644 H         1 UNK         0.3105 
    102 H102      -76.9418   28.8189  -79.1941 H         1 UNK         0.0547 
    103 H103      -79.2747   27.9868  -79.2819 H         1 UNK         0.0837 
    104 H104      -78.6951   26.3247  -79.3270 H         1 UNK         0.0837 
    105 H105      -78.3137   27.4197  -80.6363 H         1 UNK         0.0837 
    106 H106      -78.1201   27.3681  -76.9941 H         1 UNK         0.3020 
    107 H107      -76.1413   29.1992  -74.6028 H         1 UNK         0.1245 
    108 H108      -78.8120   29.3225  -74.1079 H         1 UNK         0.0781 
    109 H109      -78.8864   29.6291  -75.8028 H         1 UNK         0.0781 
    110 H110      -79.5752   31.9050  -73.2304 H         1 UNK         0.0836 
    111 H111      -78.1646   32.8150  -72.7610 H         1 UNK         0.0836 
    112 H112      -78.1040   27.0775  -74.3970 H         1 UNK         0.3022 
    113 H113      -75.4378   24.9191  -73.1070 H         1 UNK         0.0747 
    114 H114      -76.4510   26.5048  -71.4012 H         1 UNK         0.0793 
    115 H115      -78.0343   26.0493  -71.9884 H         1 UNK         0.0793 
    116 H116      -76.9892   24.8409  -71.2706 H         1 UNK         0.0793 
    117 H117      -78.1952   24.3231  -73.6493 H         1 UNK         0.3047 
    118 H118      -77.4008   22.2577  -76.4967 H         1 UNK         0.0822 
    119 H119      -78.7114   20.7619  -75.0275 H         1 UNK         0.0807 
    120 H120      -78.5185   21.8653  -73.6667 H         1 UNK         0.0807 
    121 H121      -77.1207   21.0370  -74.3372 H         1 UNK         0.0807 
    122 H122      -79.8684   23.1729  -75.2830 H         1 UNK         0.2946 
    123 H123      -80.5533   25.6506  -77.7483 H         1 UNK         0.1144 
    124 H124      -82.5617   24.2384  -78.0936 H         1 UNK         0.0793 
    125 H125      -81.7699   22.8671  -77.3163 H         1 UNK         0.0793 
    126 H126      -81.1623   23.4902  -78.8440 H         1 UNK         0.0793 
    127 H127      -82.0659   24.5963  -75.5369 H         1 UNK         0.2896 
@<TRIPOS>BOND
     1    1    2 1    
     2    1   67 1    
     3    1   68 1    
     4    1   69 1    
     5    2    3 2    
     6    2    4 am   BACKBONE|DICT|INTERRES
     7    4    5 1    
     8    4   70 1    
     9    5    6 1    
    10    5   65 1    
    11    5   71 1    
    12    6    7 1    
    13    6   72 1    
    14    6   73 1    
    15    7    8 1    
    16    8    9 1    
    17    8   74 1    
    18    8   75 1    
    19    9   10 ar   
    20    9   14 ar   
    21   10   11 ar   
    22   10   76 1    
    23   11   12 ar   
    24   11   48 1    
    25   12   13 ar   
    26   12   77 1    
    27   13   14 ar   
    28   13   15 1    
    29   14   78 1    
    30   15   16 1    
    31   15   79 1    
    32   15   80 1    
    33   16   17 1    
    34   17   18 1    
    35   17   81 1    
    36   17   82 1    
    37   18   19 1    
    38   18   22 1    
    39   18   83 1    
    40   19   20 am   BACKBONE|DICT|INTERRES
    41   19   21 2    
    42   20   84 1    
    43   20   85 1    
    44   22   23 am   BACKBONE|DICT|INTERRES
    45   22   86 1    
    46   23   24 2    
    47   23   25 1    
    48   25   26 1    
    49   25   27 1    
    50   25   87 1    
    51   26   88 1    
    52   26   89 1    
    53   26   90 1    
    54   27   28 am   BACKBONE|DICT|INTERRES
    55   27   91 1    
    56   28   29 2    
    57   28   30 1    
    58   30   31 1    
    59   30   32 1    
    60   30   92 1    
    61   31   93 1    
    62   31   94 1    
    63   31   95 1    
    64   32   33 am   BACKBONE|DICT|INTERRES
    65   32   96 1    
    66   33   34 2    
    67   33   35 1    
    68   35   36 1    
    69   35   37 1    
    70   35   97 1    
    71   36   98 1    
    72   36   99 1    
    73   36  100 1    
    74   37   38 am   BACKBONE|DICT|INTERRES
    75   37  101 1    
    76   38   39 2    
    77   38   40 1    
    78   40   41 1    
    79   40   42 1    
    80   40  102 1    
    81   41  103 1    
    82   41  104 1    
    83   41  105 1    
    84   42   43 am   BACKBONE|DICT|INTERRES
    85   42  106 1    
    86   43   44 2    
    87   43   45 1    
    88   45   46 1    
    89   45   49 1    
    90   45  107 1    
    91   46   47 1    
    92   46  108 1    
    93   46  109 1    
    94   47   48 1    
    95   48  110 1    
    96   48  111 1    
    97   49   50 am   BACKBONE|DICT|INTERRES
    98   49  112 1    
    99   50   51 2    
   100   50   52 1    
   101   52   53 1    
   102   52   54 1    
   103   52  113 1    
   104   53  114 1    
   105   53  115 1    
   106   53  116 1    
   107   54   55 am   BACKBONE|DICT|INTERRES
   108   54  117 1    
   109   55   56 2    
   110   55   57 1    
   111   57   58 1    
   112   57   59 1    
   113   57  118 1    
   114   58  119 1    
   115   58  120 1    
   116   58  121 1    
   117   59   60 am   BACKBONE|DICT|INTERRES
   118   59  122 1    
   119   60   61 2    
   120   60   62 1    
   121   62   63 1    
   122   62   64 1    
   123   62  123 1    
   124   63  124 1    
   125   63  125 1    
   126   63  126 1    
   127   64   65 am   BACKBONE|DICT|INTERRES
   128   64  127 1    
   129   65   66 2    
@<TRIPOS>SUBSTRUCTURE
     1 UNK         1 GROUP             0       ****    0 ROOT    
