@<TRIPOS>MOLECULE
3R135
127   129    1
SMALL
USER_CHARGES


@<TRIPOS>ATOM
      1 CA        -84.4871   25.9149  -69.6671 C.3       0 UNK        -0.1998 
      2 C         -84.2660   25.7331  -71.1612 C.2       0 UNK         0.4909 
      3 O         -85.1284   25.1820  -71.8458 O.2       0 UNK        -0.5240 
      4 N         -83.1154   26.1912  -71.6718 N.am      1 UNK        -0.4739 
      5 CA        -82.7395   26.1072  -73.0911 C.3       1 UNK         0.0864 
      6 C6        -81.6092   27.1032  -73.4517 C.3       11 UNK        -0.0881 
      7 S7        -82.0942   28.8399  -73.1894 S.3       11 UNK        -0.2682 
      8 C8        -81.0304   29.3138  -71.7884 C.3       11 UNK         0.0289 
      9 C9        -79.5690   29.4988  -72.1833 C.ar      11 UNK        -0.0687 
     10 C10       -79.2135   30.4652  -73.1283 C.ar      11 UNK        -0.0823 
     11 C11       -77.8714   30.7050  -73.4363 C.ar      11 UNK        -0.0830 
     12 C12       -76.8783   29.9836  -72.7636 C.ar      11 UNK        -0.1021 
     13 C13       -77.2152   28.9792  -71.8481 C.ar      11 UNK        -0.0753 
     14 C14       -78.5659   28.7464  -71.5637 C.ar      11 UNK        -0.0933 
     15 C15       -76.1455   28.1672  -71.1170 C.3       11 UNK         0.0166 
     16 S16       -74.7868   27.5703  -72.1848 S.3       11 UNK        -0.2615 
     17 C17       -73.5400   28.8937  -71.9895 C.3       11 UNK        -0.0865 
     18 CA        -72.9609   29.3624  -73.3546 C.3       10 UNK         0.0862 
     19 C         -72.2472   30.7487  -73.2821 C.2       10 UNK         0.5551 
     20 N         -71.2565   31.0244  -74.1219 N.am      10 UNK        -0.7319 
     21 O         -72.6172   31.6037  -72.4814 O.2       10 UNK        -0.5018 
     22 N         -72.1999   28.3039  -74.0478 N.am      10 UNK        -0.4509 
     23 C         -71.0079   27.8071  -73.6878 C.2       10 UNK         0.4899 
     24 O         -70.4124   28.1386  -72.6615 O.2       10 UNK        -0.4839 
     25 CA        -70.3420   26.8195  -74.6694 C.3       9 UNK         0.0222 
     26 CB        -69.2043   25.9977  -74.0247 C.3       9 UNK        -0.1966 
     27 N         -71.2873   25.9544  -75.3860 N.am      9 UNK        -0.4218 
     28 C         -72.0677   24.9892  -74.8713 C.2       9 UNK         0.5020 
     29 O         -72.0787   24.6832  -73.6783 O.2       9 UNK        -0.5274 
     30 CA        -72.9829   24.2263  -75.8523 C.3       8 UNK         0.0270 
     31 CB        -74.3601   23.9278  -75.2358 C.3       8 UNK        -0.1976 
     32 N         -73.1890   24.9828  -77.0872 N.am      8 UNK        -0.4313 
     33 C         -72.7538   24.6452  -78.3075 C.2       8 UNK         0.5041 
     34 O         -72.1655   23.5924  -78.5562 O.2       8 UNK        -0.5577 
     35 CA        -72.9911   25.6566  -79.4478 C.3       7 UNK         0.0284 
     36 CB        -74.1217   25.1811  -80.3741 C.3       7 UNK        -0.1958 
     37 N         -73.2860   27.0157  -78.9787 N.am      7 UNK        -0.4454 
     38 C         -72.3892   27.8229  -78.3928 C.2       7 UNK         0.5089 
     39 O         -71.2114   27.5139  -78.2121 O.2       7 UNK        -0.5125 
     40 CA        -72.8995   29.1697  -77.8460 C.3       6 UNK         0.0408 
     41 CB        -72.7547   30.2694  -78.9083 C.3       6 UNK        -0.1791 
     42 N         -74.2810   29.1523  -77.3493 N.am      6 UNK        -0.4762 
     43 C         -74.7706   28.3123  -76.4260 C.2       6 UNK         0.5007 
     44 O         -74.1063   27.4022  -75.9321 O.2       6 UNK        -0.5032 
     45 CA        -76.2340   28.4877  -75.9671 C.3       5 UNK         0.0783 
     46 C46       -76.9407   29.7839  -76.4468 C.3       11 UNK        -0.0857 
     47 S47       -76.2272   31.2730  -75.6589 S.3       11 UNK        -0.2512 
     48 C48       -77.5176   31.7747  -74.4673 C.3       11 UNK         0.0225 
     49 N         -77.0261   27.2813  -76.2152 N.am      5 UNK        -0.4615 
     50 C         -77.0958   26.5479  -77.3331 C.2       4 UNK         0.5053 
     51 O         -76.5253   26.8507  -78.3831 O.2       4 UNK        -0.5105 
     52 CA        -77.9288   25.2468  -77.2556 C.3       4 UNK         0.0263 
     53 CB        -77.6640   24.3080  -78.4478 C.3       4 UNK        -0.1981 
     54 N         -77.7357   24.4842  -76.0129 N.am      4 UNK        -0.4224 
     55 C         -78.2364   24.8058  -74.8139 C.2       3 UNK         0.4895 
     56 O         -78.8810   25.8334  -74.6012 O.2       3 UNK        -0.5091 
     57 CA        -77.9556   23.8495  -73.6478 C.3       3 UNK         0.0250 
     58 CB        -77.0602   24.5232  -72.5936 C.3       3 UNK        -0.1996 
     59 N         -79.2284   23.4989  -73.0269 N.am      3 UNK        -0.4254 
     60 C         -80.0317   22.5064  -73.4305 C.2       2 UNK         0.5004 
     61 O         -79.7171   21.6621  -74.2700 O.2       2 UNK        -0.5226 
     62 CA        -81.4387   22.4753  -72.8079 C.3       2 UNK         0.0269 
     63 CB        -81.4381   21.6733  -71.4965 C.3       2 UNK        -0.1926 
     64 N         -81.9637   23.8226  -72.5580 N.am      2 UNK        -0.4687 
     65 C         -82.3405   24.6789  -73.5214 C.2       1 UNK         0.5165 
     66 O         -82.3710   24.3815  -74.7165 O.2       1 UNK        -0.5079 
     67 H67       -84.6173   24.9458  -69.1864 H         1 UNK         0.0900 
     68 H68       -85.3850   26.5064  -69.4906 H         1 UNK         0.0900 
     69 H69       -83.6488   26.4213  -69.1888 H         1 UNK         0.0900 
     70 H70       -82.4515   26.6522  -71.0672 H         1 UNK         0.2959 
     71 H71       -83.6177   26.3705  -73.6854 H         1 UNK         0.1079 
     72 H72       -81.3369   27.0065  -74.5049 H         1 UNK         0.0837 
     73 H73       -80.7013   26.8807  -72.8881 H         1 UNK         0.0837 
     74 H74       -81.3991   30.2549  -71.3781 H         1 UNK         0.0685 
     75 H75       -81.1325   28.5758  -70.9917 H         1 UNK         0.0685 
     76 H76       -79.9901   31.0416  -73.6127 H         1 UNK         0.1434 
     77 H77       -75.8409   30.1963  -72.9714 H         1 UNK         0.1329 
     78 H78       -78.8369   27.9956  -70.8341 H         1 UNK         0.1335 
     79 H79       -76.6010   27.2869  -70.6612 H         1 UNK         0.0680 
     80 H80       -75.7472   28.7558  -70.2900 H         1 UNK         0.0680 
     81 H81       -72.7440   28.5367  -71.3348 H         1 UNK         0.1032 
     82 H82       -74.0024   29.7284  -71.4610 H         1 UNK         0.1032 
     83 H83       -73.8126   29.5638  -74.0025 H         1 UNK         0.0461 
     84 H84       -70.9428   30.3372  -74.7868 H         1 UNK         0.3453 
     85 H85       -70.8090   31.9263  -74.0767 H         1 UNK         0.3453 
     86 H86       -72.6631   27.9139  -74.8634 H         1 UNK         0.2984 
     87 H87       -69.8855   27.4429  -75.4395 H         1 UNK         0.0554 
     88 H88       -68.7404   25.3254  -74.7463 H         1 UNK         0.0847 
     89 H89       -69.5607   25.3979  -73.1868 H         1 UNK         0.0847 
     90 H90       -68.4186   26.6504  -73.6422 H         1 UNK         0.0847 
     91 H91       -71.3563   26.1296  -76.3810 H         1 UNK         0.3141 
     92 H92       -72.4897   23.2758  -76.0644 H         1 UNK         0.0743 
     93 H93       -74.2695   23.3595  -74.3092 H         1 UNK         0.0784 
     94 H94       -74.8957   24.8503  -75.0095 H         1 UNK         0.0784 
     95 H95       -74.9725   23.3380  -75.9171 H         1 UNK         0.0784 
     96 H96       -73.6356   25.8880  -76.9568 H         1 UNK         0.3213 
     97 H97       -72.0706   25.6966  -80.0345 H         1 UNK         0.0855 
     98 H98       -75.0781   25.1377  -79.8547 H         1 UNK         0.0814 
     99 H99       -73.9160   24.1824  -80.7617 H         1 UNK         0.0814 
    100 H100      -74.2366   25.8431  -81.2324 H         1 UNK         0.0814 
    101 H101      -74.2506   27.3202  -79.0335 H         1 UNK         0.3105 
    102 H102      -72.2624   29.4338  -76.9996 H         1 UNK         0.0547 
    103 H103      -73.4025   30.0894  -79.7671 H         1 UNK         0.0837 
    104 H104      -72.9996   31.2506  -78.5012 H         1 UNK         0.0837 
    105 H105      -71.7298   30.3224  -79.2788 H         1 UNK         0.0837 
    106 H106      -74.8930   29.8759  -77.6995 H         1 UNK         0.3020 
    107 H107      -76.1697   28.5329  -74.8809 H         1 UNK         0.1245 
    108 H108      -76.9033   29.8828  -77.5328 H         1 UNK         0.0781 
    109 H109      -78.0019   29.7381  -76.1963 H         1 UNK         0.0781 
    110 H110      -77.1756   32.6653  -73.9388 H         1 UNK         0.0836 
    111 H111      -78.4029   32.0745  -75.0303 H         1 UNK         0.0836 
    112 H112      -77.5679   26.9431  -75.4245 H         1 UNK         0.3022 
    113 H113      -78.9763   25.5519  -77.3045 H         1 UNK         0.0747 
    114 H114      -78.3248   23.4413  -78.4235 H         1 UNK         0.0793 
    115 H115      -77.8384   24.8143  -79.3983 H         1 UNK         0.0793 
    116 H116      -76.6357   23.9451  -78.4517 H         1 UNK         0.0793 
    117 H117      -77.2061   23.6292  -76.0985 H         1 UNK         0.3047 
    118 H118      -77.4560   22.9494  -74.0128 H         1 UNK         0.0822 
    119 H119      -76.8674   23.8569  -71.7528 H         1 UNK         0.0807 
    120 H120      -77.5123   25.4351  -72.2008 H         1 UNK         0.0807 
    121 H121      -76.0935   24.8008  -73.0120 H         1 UNK         0.0807 
    122 H122      -79.5993   24.1665  -72.3676 H         1 UNK         0.2946 
    123 H123      -82.1012   21.9742  -73.5177 H         1 UNK         0.1144 
    124 H124      -82.4435   21.5884  -71.0834 H         1 UNK         0.0793 
    125 H125      -80.8008   22.1321  -70.7395 H         1 UNK         0.0793 
    126 H126      -81.0704   20.6593  -71.6610 H         1 UNK         0.0793 
    127 H127      -82.0003   24.1361  -71.5989 H         1 UNK         0.2896 
@<TRIPOS>BOND
     1    1    2 1    
     2    1   67 1    
     3    1   68 1    
     4    1   69 1    
     5    2    3 2    
     6    2    4 am   BACKBONE|DICT|INTERRES
     7    4    5 1    
     8    4   70 1    
     9    5    6 1    
    10    5   65 1    
    11    5   71 1    
    12    6    7 1    
    13    6   72 1    
    14    6   73 1    
    15    7    8 1    
    16    8    9 1    
    17    8   74 1    
    18    8   75 1    
    19    9   10 ar   
    20    9   14 ar   
    21   10   11 ar   
    22   10   76 1    
    23   11   12 ar   
    24   11   48 1    
    25   12   13 ar   
    26   12   77 1    
    27   13   14 ar   
    28   13   15 1    
    29   14   78 1    
    30   15   16 1    
    31   15   79 1    
    32   15   80 1    
    33   16   17 1    
    34   17   18 1    
    35   17   81 1    
    36   17   82 1    
    37   18   19 1    
    38   18   22 1    
    39   18   83 1    
    40   19   20 am   BACKBONE|DICT|INTERRES
    41   19   21 2    
    42   20   84 1    
    43   20   85 1    
    44   22   23 am   BACKBONE|DICT|INTERRES
    45   22   86 1    
    46   23   24 2    
    47   23   25 1    
    48   25   26 1    
    49   25   27 1    
    50   25   87 1    
    51   26   88 1    
    52   26   89 1    
    53   26   90 1    
    54   27   28 am   BACKBONE|DICT|INTERRES
    55   27   91 1    
    56   28   29 2    
    57   28   30 1    
    58   30   31 1    
    59   30   32 1    
    60   30   92 1    
    61   31   93 1    
    62   31   94 1    
    63   31   95 1    
    64   32   33 am   BACKBONE|DICT|INTERRES
    65   32   96 1    
    66   33   34 2    
    67   33   35 1    
    68   35   36 1    
    69   35   37 1    
    70   35   97 1    
    71   36   98 1    
    72   36   99 1    
    73   36  100 1    
    74   37   38 am   BACKBONE|DICT|INTERRES
    75   37  101 1    
    76   38   39 2    
    77   38   40 1    
    78   40   41 1    
    79   40   42 1    
    80   40  102 1    
    81   41  103 1    
    82   41  104 1    
    83   41  105 1    
    84   42   43 am   BACKBONE|DICT|INTERRES
    85   42  106 1    
    86   43   44 2    
    87   43   45 1    
    88   45   46 1    
    89   45   49 1    
    90   45  107 1    
    91   46   47 1    
    92   46  108 1    
    93   46  109 1    
    94   47   48 1    
    95   48  110 1    
    96   48  111 1    
    97   49   50 am   BACKBONE|DICT|INTERRES
    98   49  112 1    
    99   50   51 2    
   100   50   52 1    
   101   52   53 1    
   102   52   54 1    
   103   52  113 1    
   104   53  114 1    
   105   53  115 1    
   106   53  116 1    
   107   54   55 am   BACKBONE|DICT|INTERRES
   108   54  117 1    
   109   55   56 2    
   110   55   57 1    
   111   57   58 1    
   112   57   59 1    
   113   57  118 1    
   114   58  119 1    
   115   58  120 1    
   116   58  121 1    
   117   59   60 am   BACKBONE|DICT|INTERRES
   118   59  122 1    
   119   60   61 2    
   120   60   62 1    
   121   62   63 1    
   122   62   64 1    
   123   62  123 1    
   124   63  124 1    
   125   63  125 1    
   126   63  126 1    
   127   64   65 am   BACKBONE|DICT|INTERRES
   128   64  127 1    
   129   65   66 2    
@<TRIPOS>SUBSTRUCTURE
     1 UNK         1 GROUP             0       ****    0 ROOT    
