@<TRIPOS>MOLECULE
3R135
127   129    1
SMALL
USER_CHARGES


@<TRIPOS>ATOM
      1 CA        -79.6295   28.7246  -77.1675 C.3       0 UNK        -0.1998 
      2 C         -79.8295   27.8686  -75.9268 C.2       0 UNK         0.4909 
      3 O         -79.3740   26.7246  -75.9003 O.2       0 UNK        -0.5240 
      4 N         -80.4986   28.4218  -74.9033 N.am      1 UNK        -0.4739 
      5 CA        -80.7892   27.7924  -73.6074 C.3       1 UNK         0.0864 
      6 C6        -81.6367   28.7083  -72.6903 C.3       11 UNK        -0.0881 
      7 S7        -80.8553   30.3176  -72.3306 S.3       11 UNK        -0.2682 
      8 C8        -80.3369   30.1166  -70.5952 C.3       11 UNK         0.0289 
      9 C9        -78.8805   29.6912  -70.4983 C.ar      11 UNK        -0.0687 
     10 C10       -78.5196   28.3442  -70.5908 C.ar      11 UNK        -0.0823 
     11 C11       -77.1742   27.9602  -70.5282 C.ar      11 UNK        -0.0830 
     12 C12       -76.1918   28.9388  -70.3291 C.ar      11 UNK        -0.1021 
     13 C13       -76.5455   30.2877  -70.2107 C.ar      11 UNK        -0.0753 
     14 C14       -77.8893   30.6555  -70.3053 C.ar      11 UNK        -0.0933 
     15 C15       -75.4938   31.3586  -69.9549 C.3       11 UNK         0.0166 
     16 S16       -75.1899   32.3798  -71.4335 S.3       11 UNK        -0.2615 
     17 C17       -73.9270   31.3965  -72.3060 C.3       11 UNK        -0.0865 
     18 CA        -74.5293   30.3153  -73.2515 C.3       10 UNK         0.0862 
     19 C         -74.8576   30.8348  -74.6853 C.2       10 UNK         0.5551 
     20 N         -74.8561   29.9854  -75.7046 N.am      10 UNK        -0.7319 
     21 O         -75.1398   32.0142  -74.8819 O.2       10 UNK        -0.5018 
     22 N         -73.7488   29.0689  -73.1998 N.am      10 UNK        -0.4509 
     23 C         -72.4806   28.9178  -73.6033 C.2       10 UNK         0.4899 
     24 O         -71.8107   29.8097  -74.1245 O.2       10 UNK        -0.4839 
     25 CA        -71.8358   27.5463  -73.3685 C.3       9 UNK         0.0222 
     26 CB        -72.5441   26.6787  -72.3051 C.3       9 UNK        -0.1966 
     27 N         -71.7792   26.8324  -74.6397 N.am      9 UNK        -0.4218 
     28 C         -70.7653   26.0530  -75.0353 C.2       9 UNK         0.5020 
     29 O         -69.7600   25.8389  -74.3553 O.2       9 UNK        -0.5274 
     30 CA        -70.8820   25.3788  -76.4131 C.3       8 UNK         0.0270 
     31 CB        -71.4786   23.9704  -76.2691 C.3       8 UNK        -0.1976 
     32 N         -71.6758   26.1370  -77.3811 N.am      8 UNK        -0.4313 
     33 C         -71.3042   27.2806  -77.9671 C.2       8 UNK         0.5041 
     34 O         -70.2334   27.8441  -77.7378 O.2       8 UNK        -0.5577 
     35 CA        -72.2739   27.9084  -78.9892 C.3       7 UNK         0.0284 
     36 CB        -72.0210   27.3472  -80.4025 C.3       7 UNK        -0.1958 
     37 N         -73.6997   27.8345  -78.6299 N.am      7 UNK        -0.4454 
     38 C         -74.4823   26.7549  -78.4967 C.2       7 UNK         0.5089 
     39 O         -74.1058   25.5961  -78.6843 O.2       7 UNK        -0.5125 
     40 CA        -75.9212   27.0159  -78.0218 C.3       6 UNK         0.0408 
     41 CB        -76.9321   26.6054  -79.1037 C.3       6 UNK        -0.1791 
     42 N         -76.2282   26.3047  -76.7789 N.am      6 UNK        -0.4762 
     43 C         -75.5482   26.4079  -75.6258 C.2       6 UNK         0.5007 
     44 O         -74.5636   27.1337  -75.4767 O.2       6 UNK        -0.5032 
     45 CA        -76.0566   25.5885  -74.4232 C.3       5 UNK         0.0783 
     46 C46       -76.8798   26.5001  -73.4789 C.3       11 UNK        -0.0857 
     47 S47       -77.5749   25.6238  -72.0376 S.3       11 UNK        -0.2512 
     48 C48       -76.7767   26.4895  -70.6408 C.3       11 UNK         0.0225 
     49 N         -76.7873   24.3893  -74.8470 N.am      5 UNK        -0.4615 
     50 C         -76.1996   23.2917  -75.3451 C.2       4 UNK         0.5053 
     51 O         -74.9810   23.1721  -75.4650 O.2       4 UNK        -0.5105 
     52 CA        -77.1016   22.1189  -75.7690 C.3       4 UNK         0.0263 
     53 CB        -77.0178   20.9804  -74.7393 C.3       4 UNK        -0.1981 
     54 N         -78.5057   22.4859  -75.9492 N.am      4 UNK        -0.4224 
     55 C         -79.0015   23.2455  -76.9321 C.2       3 UNK         0.4895 
     56 O         -78.3162   23.7216  -77.8363 O.2       3 UNK        -0.5091 
     57 CA        -80.5105   23.5451  -76.8873 C.3       3 UNK         0.0250 
     58 CB        -81.3303   22.3759  -77.4661 C.3       3 UNK        -0.1996 
     59 N         -81.0047   23.9529  -75.5633 N.am      3 UNK        -0.4254 
     60 C         -81.0710   23.2596  -74.4163 C.2       2 UNK         0.5004 
     61 O         -80.7378   22.0770  -74.3198 O.2       2 UNK        -0.5226 
     62 CA        -81.5331   24.0273  -73.1582 C.3       2 UNK         0.0269 
     63 CB        -81.1433   23.3033  -71.8554 C.3       2 UNK        -0.1926 
     64 N         -81.0057   25.3958  -73.1036 N.am      2 UNK        -0.4687 
     65 C         -81.5089   26.4398  -73.7736 C.2       1 UNK         0.5165 
     66 O         -82.4958   26.3608  -74.5088 O.2       1 UNK        -0.5079 
     67 H67       -80.0410   28.2196  -78.0408 H         1 UNK         0.0900 
     68 H68       -78.5662   28.8909  -77.3371 H         1 UNK         0.0900 
     69 H69       -80.1152   29.6958  -77.0763 H         1 UNK         0.0900 
     70 H70       -80.8445   29.3658  -74.9984 H         1 UNK         0.2959 
     71 H71       -79.8282   27.6147  -73.1238 H         1 UNK         0.1079 
     72 H72       -82.6035   28.9134  -73.1550 H         1 UNK         0.0837 
     73 H73       -81.8668   28.2007  -71.7518 H         1 UNK         0.0837 
     74 H74       -80.4773   31.0706  -70.0846 H         1 UNK         0.0685 
     75 H75       -80.9771   29.4064  -70.0708 H         1 UNK         0.0685 
     76 H76       -79.2871   27.5945  -70.7202 H         1 UNK         0.1434 
     77 H77       -75.1515   28.6529  -70.2559 H         1 UNK         0.1329 
     78 H78       -78.1627   31.6990  -70.2252 H         1 UNK         0.1335 
     79 H79       -75.8424   32.0098  -69.1520 H         1 UNK         0.0680 
     80 H80       -74.5621   30.9174  -69.5981 H         1 UNK         0.0680 
     81 H81       -73.2864   30.9383  -71.5514 H         1 UNK         0.1032 
     82 H82       -73.2690   32.0713  -72.8569 H         1 UNK         0.1032 
     83 H83       -75.5026   30.0274  -72.8556 H         1 UNK         0.0461 
     84 H84       -75.0833   30.3353  -76.6197 H         1 UNK         0.3453 
     85 H85       -74.6506   29.0019  -75.5583 H         1 UNK         0.3453 
     86 H86       -74.2254   28.2669  -72.8195 H         1 UNK         0.2984 
     87 H87       -70.8226   27.7488  -73.0147 H         1 UNK         0.0554 
     88 H88       -71.9760   25.7698  -72.1058 H         1 UNK         0.0847 
     89 H89       -73.5430   26.3756  -72.6153 H         1 UNK         0.0847 
     90 H90       -72.6333   27.2108  -71.3569 H         1 UNK         0.0847 
     91 H91       -72.5784   26.9634  -75.2533 H         1 UNK         0.3141 
     92 H92       -69.8714   25.2801  -76.8151 H         1 UNK         0.0743 
     93 H93       -72.4982   24.0065  -75.8846 H         1 UNK         0.0784 
     94 H94       -71.4991   23.4463  -77.2248 H         1 UNK         0.0784 
     95 H95       -70.8906   23.3640  -75.5788 H         1 UNK         0.0784 
     96 H96       -72.5660   25.7386  -77.6740 H         1 UNK         0.3213 
     97 H97       -72.0375   28.9736  -79.0172 H         1 UNK         0.0855 
     98 H98       -70.9826   27.4994  -80.7000 H         1 UNK         0.0814 
     99 H99       -72.6460   27.8440  -81.1445 H         1 UNK         0.0814 
    100 H100      -72.2185   26.2765  -80.4599 H         1 UNK         0.0814 
    101 H101      -74.1161   28.7287  -78.4119 H         1 UNK         0.3105 
    102 H102      -76.0477   28.0821  -77.8248 H         1 UNK         0.0547 
    103 H103      -76.7728   27.1704  -80.0229 H         1 UNK         0.0837 
    104 H104      -76.8452   25.5467  -79.3523 H         1 UNK         0.0837 
    105 H105      -77.9578   26.7857  -78.7829 H         1 UNK         0.0837 
    106 H106      -77.0203   25.6760  -76.8077 H         1 UNK         0.3020 
    107 H107      -75.1728   25.2535  -73.8769 H         1 UNK         0.1245 
    108 H108      -77.7073   26.9615  -74.0137 H         1 UNK         0.0781 
    109 H109      -76.2644   27.3304  -73.1300 H         1 UNK         0.0781 
    110 H110      -75.6949   26.3841  -70.7368 H         1 UNK         0.0836 
    111 H111      -77.0523   25.9841  -69.7145 H         1 UNK         0.0836 
    112 H112      -77.7930   24.4199  -74.7698 H         1 UNK         0.3022 
    113 H113      -76.7244   21.7491  -76.7248 H         1 UNK         0.0747 
    114 H114      -77.5888   20.1099  -75.0628 H         1 UNK         0.0793 
    115 H115      -75.9861   20.6551  -74.5973 H         1 UNK         0.0793 
    116 H116      -77.4002   21.2900  -73.7656 H         1 UNK         0.0793 
    117 H117      -79.1690   22.1460  -75.2548 H         1 UNK         0.3047 
    118 H118      -80.6709   24.4099  -77.5336 H         1 UNK         0.0822 
    119 H119      -82.3923   22.6180  -77.5038 H         1 UNK         0.0807 
    120 H120      -81.2152   21.4635  -76.8802 H         1 UNK         0.0807 
    121 H121      -81.0136   22.1474  -78.4846 H         1 UNK         0.0807 
    122 H122      -81.2830   24.9263  -75.5059 H         1 UNK         0.2946 
    123 H123      -82.6240   24.0696  -73.2024 H         1 UNK         0.1144 
    124 H124      -81.5020   23.8425  -70.9785 H         1 UNK         0.0793 
    125 H125      -80.0616   23.1945  -71.7636 H         1 UNK         0.0793 
    126 H126      -81.5774   22.3033  -71.8151 H         1 UNK         0.0793 
    127 H127      -80.1643   25.5225  -72.5573 H         1 UNK         0.2896 
@<TRIPOS>BOND
     1    1    2 1    
     2    1   67 1    
     3    1   68 1    
     4    1   69 1    
     5    2    3 2    
     6    2    4 am   BACKBONE|DICT|INTERRES
     7    4    5 1    
     8    4   70 1    
     9    5    6 1    
    10    5   65 1    
    11    5   71 1    
    12    6    7 1    
    13    6   72 1    
    14    6   73 1    
    15    7    8 1    
    16    8    9 1    
    17    8   74 1    
    18    8   75 1    
    19    9   10 ar   
    20    9   14 ar   
    21   10   11 ar   
    22   10   76 1    
    23   11   12 ar   
    24   11   48 1    
    25   12   13 ar   
    26   12   77 1    
    27   13   14 ar   
    28   13   15 1    
    29   14   78 1    
    30   15   16 1    
    31   15   79 1    
    32   15   80 1    
    33   16   17 1    
    34   17   18 1    
    35   17   81 1    
    36   17   82 1    
    37   18   19 1    
    38   18   22 1    
    39   18   83 1    
    40   19   20 am   BACKBONE|DICT|INTERRES
    41   19   21 2    
    42   20   84 1    
    43   20   85 1    
    44   22   23 am   BACKBONE|DICT|INTERRES
    45   22   86 1    
    46   23   24 2    
    47   23   25 1    
    48   25   26 1    
    49   25   27 1    
    50   25   87 1    
    51   26   88 1    
    52   26   89 1    
    53   26   90 1    
    54   27   28 am   BACKBONE|DICT|INTERRES
    55   27   91 1    
    56   28   29 2    
    57   28   30 1    
    58   30   31 1    
    59   30   32 1    
    60   30   92 1    
    61   31   93 1    
    62   31   94 1    
    63   31   95 1    
    64   32   33 am   BACKBONE|DICT|INTERRES
    65   32   96 1    
    66   33   34 2    
    67   33   35 1    
    68   35   36 1    
    69   35   37 1    
    70   35   97 1    
    71   36   98 1    
    72   36   99 1    
    73   36  100 1    
    74   37   38 am   BACKBONE|DICT|INTERRES
    75   37  101 1    
    76   38   39 2    
    77   38   40 1    
    78   40   41 1    
    79   40   42 1    
    80   40  102 1    
    81   41  103 1    
    82   41  104 1    
    83   41  105 1    
    84   42   43 am   BACKBONE|DICT|INTERRES
    85   42  106 1    
    86   43   44 2    
    87   43   45 1    
    88   45   46 1    
    89   45   49 1    
    90   45  107 1    
    91   46   47 1    
    92   46  108 1    
    93   46  109 1    
    94   47   48 1    
    95   48  110 1    
    96   48  111 1    
    97   49   50 am   BACKBONE|DICT|INTERRES
    98   49  112 1    
    99   50   51 2    
   100   50   52 1    
   101   52   53 1    
   102   52   54 1    
   103   52  113 1    
   104   53  114 1    
   105   53  115 1    
   106   53  116 1    
   107   54   55 am   BACKBONE|DICT|INTERRES
   108   54  117 1    
   109   55   56 2    
   110   55   57 1    
   111   57   58 1    
   112   57   59 1    
   113   57  118 1    
   114   58  119 1    
   115   58  120 1    
   116   58  121 1    
   117   59   60 am   BACKBONE|DICT|INTERRES
   118   59  122 1    
   119   60   61 2    
   120   60   62 1    
   121   62   63 1    
   122   62   64 1    
   123   62  123 1    
   124   63  124 1    
   125   63  125 1    
   126   63  126 1    
   127   64   65 am   BACKBONE|DICT|INTERRES
   128   64  127 1    
   129   65   66 2    
@<TRIPOS>SUBSTRUCTURE
     1 UNK         1 GROUP             0       ****    0 ROOT    
