@<TRIPOS>MOLECULE
3R135
127   129    1
SMALL
USER_CHARGES


@<TRIPOS>ATOM
      1 CA        -80.0379   22.8946  -72.4105 C.3       0 UNK        -0.1998 
      2 C         -80.2448   24.2464  -73.0757 C.2       0 UNK         0.4909 
      3 O         -79.4735   24.6048  -73.9690 O.2       0 UNK        -0.5240 
      4 N         -81.2722   24.9953  -72.6467 N.am      1 UNK        -0.4739 
      5 CA        -81.6697   26.3021  -73.1887 C.3       1 UNK         0.0864 
      6 C6        -80.5509   27.3634  -72.9965 C.3       11 UNK        -0.0881 
      7 S7        -81.1034   29.0945  -73.1861 S.3       11 UNK        -0.2682 
      8 C8        -80.2654   29.9226  -71.7926 C.3       11 UNK         0.0289 
      9 C9        -78.7702   29.6338  -71.7751 C.ar      11 UNK        -0.0687 
     10 C10       -78.2482   28.7119  -70.8638 C.ar      11 UNK        -0.0823 
     11 C11       -76.8925   28.3781  -70.8840 C.ar      11 UNK        -0.0830 
     12 C12       -76.0465   29.0065  -71.8032 C.ar      11 UNK        -0.1021 
     13 C13       -76.5523   29.9465  -72.7070 C.ar      11 UNK        -0.0753 
     14 C14       -77.9155   30.2568  -72.6882 C.ar      11 UNK        -0.0933 
     15 C15       -75.6408   30.5941  -73.7370 C.3       11 UNK         0.0166 
     16 S16       -74.9820   32.1914  -73.1623 S.3       11 UNK        -0.2615 
     17 C17       -73.5741   31.6842  -72.1117 C.3       11 UNK        -0.0865 
     18 CA        -72.1965   31.9238  -72.8029 C.3       10 UNK         0.0862 
     19 C         -70.9590   31.7122  -71.8739 C.2       10 UNK         0.5551 
     20 N         -71.0901   31.8954  -70.5660 N.am      10 UNK        -0.7319 
     21 O         -69.8517   31.4432  -72.3370 O.2       10 UNK        -0.5018 
     22 N         -72.0882   31.2131  -74.0894 N.am      10 UNK        -0.4509 
     23 C         -72.0160   29.8857  -74.2569 C.2       10 UNK         0.4899 
     24 O         -72.0007   29.0749  -73.3282 O.2       10 UNK        -0.4839 
     25 CA        -72.0263   29.4122  -75.7228 C.3       9 UNK         0.0222 
     26 CB        -70.8108   29.9379  -76.5178 C.3       9 UNK        -0.1966 
     27 N         -72.1774   27.9589  -75.8623 N.am      9 UNK        -0.4218 
     28 C         -71.2844   26.9928  -75.5936 C.2       9 UNK         0.5020 
     29 O         -70.1285   27.2005  -75.2197 O.2       9 UNK        -0.5274 
     30 CA        -71.7407   25.5305  -75.7823 C.3       8 UNK         0.0270 
     31 CB        -71.8961   24.8353  -74.4193 C.3       8 UNK        -0.1976 
     32 N         -72.9852   25.3832  -76.5455 N.am      8 UNK        -0.4313 
     33 C         -73.1074   25.6054  -77.8621 C.2       8 UNK         0.5041 
     34 O         -72.1616   25.8918  -78.5970 O.2       8 UNK        -0.5577 
     35 CA        -74.5241   25.5261  -78.4590 C.3       7 UNK         0.0284 
     36 CB        -74.8481   24.0878  -78.8930 C.3       7 UNK        -0.1958 
     37 N         -75.5682   26.0111  -77.5509 N.am      7 UNK        -0.4454 
     38 C         -75.6783   27.2708  -77.1037 C.2       7 UNK         0.5089 
     39 O         -74.9221   28.1845  -77.4322 O.2       7 UNK        -0.5125 
     40 CA        -76.7810   27.5425  -76.0650 C.3       6 UNK         0.0408 
     41 CB        -78.1515   27.7129  -76.7345 C.3       6 UNK        -0.1791 
     42 N         -76.8433   26.4966  -75.0412 N.am      6 UNK        -0.4762 
     43 C         -75.8544   26.2553  -74.1669 C.2       6 UNK         0.5007 
     44 O         -74.8278   26.9303  -74.0996 O.2       6 UNK        -0.5032 
     45 CA        -75.9971   25.0057  -73.2788 C.3       5 UNK         0.0783 
     46 C46       -76.6851   25.3057  -71.9227 C.3       11 UNK        -0.0857 
     47 S47       -75.4759   25.9589  -70.7163 S.3       11 UNK        -0.2512 
     48 C48       -76.3608   27.3344  -69.9092 C.3       11 UNK         0.0225 
     49 N         -76.6290   23.9017  -74.0110 N.am      5 UNK        -0.4615 
     50 C         -75.9725   23.1647  -74.9179 C.2       4 UNK         0.5053 
     51 O         -74.7998   23.3660  -75.2323 O.2       4 UNK        -0.5105 
     52 CA        -76.7347   22.0168  -75.6009 C.3       4 UNK         0.0263 
     53 CB        -76.7412   20.7727  -74.6983 C.3       4 UNK        -0.1981 
     54 N         -78.1074   22.3249  -76.0098 N.am      4 UNK        -0.4224 
     55 C         -78.4835   23.3367  -76.8033 C.2       3 UNK         0.4895 
     56 O         -77.7178   24.2161  -77.1989 O.2       3 UNK        -0.5091 
     57 CA        -79.9535   23.3835  -77.2436 C.3       3 UNK         0.0250 
     58 CB        -80.8482   22.2758  -76.6466 C.3       3 UNK        -0.1996 
     59 N         -80.4929   24.6897  -76.8897 N.am      3 UNK        -0.4254 
     60 C         -81.3476   25.4119  -77.6254 C.2       2 UNK         0.5004 
     61 O         -81.7730   25.0505  -78.7241 O.2       2 UNK        -0.5226 
     62 CA        -81.7983   26.7716  -77.0443 C.3       2 UNK         0.0269 
     63 CB        -83.2430   27.1380  -77.4468 C.3       2 UNK        -0.1926 
     64 N         -81.6142   26.8818  -75.5889 N.am      2 UNK        -0.4687 
     65 C         -82.1796   26.1242  -74.6366 C.2       1 UNK         0.5165 
     66 O         -83.0444   25.2741  -74.8604 O.2       1 UNK        -0.5079 
     67 H67       -79.0789   22.8718  -71.8945 H         1 UNK         0.0900 
     68 H68       -80.0410   22.1030  -73.1587 H         1 UNK         0.0900 
     69 H69       -80.8194   22.6755  -71.6834 H         1 UNK         0.0900 
     70 H70       -81.8854   24.6246  -71.9339 H         1 UNK         0.2959 
     71 H71       -82.5353   26.6210  -72.6057 H         1 UNK         0.1079 
     72 H72       -80.1662   27.2423  -71.9854 H         1 UNK         0.0837 
     73 H73       -79.6961   27.1877  -73.6517 H         1 UNK         0.0837 
     74 H74       -80.4294   30.9985  -71.8670 H         1 UNK         0.0685 
     75 H75       -80.7309   29.6057  -70.8580 H         1 UNK         0.0685 
     76 H76       -78.9082   28.2297  -70.1555 H         1 UNK         0.1434 
     77 H77       -74.9991   28.7382  -71.8347 H         1 UNK         0.1329 
     78 H78       -78.3166   30.9668  -73.3986 H         1 UNK         0.1335 
     79 H79       -74.8292   29.9163  -74.0005 H         1 UNK         0.0680 
     80 H80       -76.1976   30.7646  -74.6595 H         1 UNK         0.0680 
     81 H81       -73.6765   30.6414  -71.8119 H         1 UNK         0.1032 
     82 H82       -73.6536   32.2688  -71.1947 H         1 UNK         0.1032 
     83 H83       -72.1512   32.9815  -73.0646 H         1 UNK         0.0461 
     84 H84       -70.2805   31.7803  -69.9765 H         1 UNK         0.3453 
     85 H85       -71.9736   32.1485  -70.1543 H         1 UNK         0.3453 
     86 H86       -72.0828   31.8046  -74.9070 H         1 UNK         0.2984 
     87 H87       -72.9250   29.8326  -76.1769 H         1 UNK         0.0554 
     88 H88       -70.7990   29.5411  -77.5331 H         1 UNK         0.0847 
     89 H89       -69.8665   29.6711  -76.0423 H         1 UNK         0.0847 
     90 H90       -70.8308   31.0248  -76.6004 H         1 UNK         0.0847 
     91 H91       -73.1070   27.6597  -76.1295 H         1 UNK         0.3141 
     92 H92       -70.9499   25.0170  -76.3333 H         1 UNK         0.0743 
     93 H93       -72.6661   25.3104  -73.8114 H         1 UNK         0.0784 
     94 H94       -72.1573   23.7833  -74.5351 H         1 UNK         0.0784 
     95 H95       -70.9653   24.8762  -73.8521 H         1 UNK         0.0784 
     96 H96       -73.8006   25.0703  -76.0298 H         1 UNK         0.3213 
     97 H97       -74.5411   26.1620  -79.3467 H         1 UNK         0.0855 
     98 H98       -74.8682   23.4052  -78.0429 H         1 UNK         0.0814 
     99 H99       -74.1018   23.7139  -79.5952 H         1 UNK         0.0814 
    100 H100      -75.8173   24.0319  -79.3889 H         1 UNK         0.0814 
    101 H101      -76.2776   25.3353  -77.2690 H         1 UNK         0.3105 
    102 H102      -76.5382   28.4809  -75.5640 H         1 UNK         0.0547 
    103 H103      -78.1184   28.4990  -77.4900 H         1 UNK         0.0837 
    104 H104      -78.4778   26.7995  -77.2311 H         1 UNK         0.0837 
    105 H105      -78.9093   27.9988  -76.0065 H         1 UNK         0.0837 
    106 H106      -77.6329   25.8648  -75.0609 H         1 UNK         0.3020 
    107 H107      -74.9784   24.6778  -73.0561 H         1 UNK         0.1245 
    108 H108      -77.0887   24.3877  -71.4939 H         1 UNK         0.0781 
    109 H109      -77.5362   25.9783  -72.0436 H         1 UNK         0.0781 
    110 H110      -75.6826   27.8233  -69.2087 H         1 UNK         0.0836 
    111 H111      -77.1693   26.9152  -69.3083 H         1 UNK         0.0836 
    112 H112      -77.6263   23.7719  -73.8825 H         1 UNK         0.3022 
    113 H113      -76.1846   21.7680  -76.5108 H         1 UNK         0.0747 
    114 H114      -77.3238   20.9349  -73.7905 H         1 UNK         0.0793 
    115 H115      -77.1572   19.9078  -75.2154 H         1 UNK         0.0793 
    116 H116      -75.7282   20.5065  -74.3922 H         1 UNK         0.0793 
    117 H117      -78.8160   21.6649  -75.7262 H         1 UNK         0.3047 
    118 H118      -79.9452   23.2724  -78.3299 H         1 UNK         0.0822 
    119 H119      -81.8668   22.3553  -77.0274 H         1 UNK         0.0807 
    120 H120      -80.9044   22.3380  -75.5595 H         1 UNK         0.0807 
    121 H121      -80.4898   21.2813  -76.9153 H         1 UNK         0.0807 
    122 H122      -80.1824   25.0528  -75.9960 H         1 UNK         0.2946 
    123 H123      -81.1385   27.5156  -77.4933 H         1 UNK         0.1144 
    124 H124      -83.5392   28.1004  -77.0296 H         1 UNK         0.0793 
    125 H125      -83.9611   26.3900  -77.1099 H         1 UNK         0.0793 
    126 H126      -83.3404   27.2136  -78.5305 H         1 UNK         0.0793 
    127 H127      -80.9541   27.5831  -75.2804 H         1 UNK         0.2896 
@<TRIPOS>BOND
     1    1    2 1    
     2    1   67 1    
     3    1   68 1    
     4    1   69 1    
     5    2    3 2    
     6    2    4 am   BACKBONE|DICT|INTERRES
     7    4    5 1    
     8    4   70 1    
     9    5    6 1    
    10    5   65 1    
    11    5   71 1    
    12    6    7 1    
    13    6   72 1    
    14    6   73 1    
    15    7    8 1    
    16    8    9 1    
    17    8   74 1    
    18    8   75 1    
    19    9   10 ar   
    20    9   14 ar   
    21   10   11 ar   
    22   10   76 1    
    23   11   12 ar   
    24   11   48 1    
    25   12   13 ar   
    26   12   77 1    
    27   13   14 ar   
    28   13   15 1    
    29   14   78 1    
    30   15   16 1    
    31   15   79 1    
    32   15   80 1    
    33   16   17 1    
    34   17   18 1    
    35   17   81 1    
    36   17   82 1    
    37   18   19 1    
    38   18   22 1    
    39   18   83 1    
    40   19   20 am   BACKBONE|DICT|INTERRES
    41   19   21 2    
    42   20   84 1    
    43   20   85 1    
    44   22   23 am   BACKBONE|DICT|INTERRES
    45   22   86 1    
    46   23   24 2    
    47   23   25 1    
    48   25   26 1    
    49   25   27 1    
    50   25   87 1    
    51   26   88 1    
    52   26   89 1    
    53   26   90 1    
    54   27   28 am   BACKBONE|DICT|INTERRES
    55   27   91 1    
    56   28   29 2    
    57   28   30 1    
    58   30   31 1    
    59   30   32 1    
    60   30   92 1    
    61   31   93 1    
    62   31   94 1    
    63   31   95 1    
    64   32   33 am   BACKBONE|DICT|INTERRES
    65   32   96 1    
    66   33   34 2    
    67   33   35 1    
    68   35   36 1    
    69   35   37 1    
    70   35   97 1    
    71   36   98 1    
    72   36   99 1    
    73   36  100 1    
    74   37   38 am   BACKBONE|DICT|INTERRES
    75   37  101 1    
    76   38   39 2    
    77   38   40 1    
    78   40   41 1    
    79   40   42 1    
    80   40  102 1    
    81   41  103 1    
    82   41  104 1    
    83   41  105 1    
    84   42   43 am   BACKBONE|DICT|INTERRES
    85   42  106 1    
    86   43   44 2    
    87   43   45 1    
    88   45   46 1    
    89   45   49 1    
    90   45  107 1    
    91   46   47 1    
    92   46  108 1    
    93   46  109 1    
    94   47   48 1    
    95   48  110 1    
    96   48  111 1    
    97   49   50 am   BACKBONE|DICT|INTERRES
    98   49  112 1    
    99   50   51 2    
   100   50   52 1    
   101   52   53 1    
   102   52   54 1    
   103   52  113 1    
   104   53  114 1    
   105   53  115 1    
   106   53  116 1    
   107   54   55 am   BACKBONE|DICT|INTERRES
   108   54  117 1    
   109   55   56 2    
   110   55   57 1    
   111   57   58 1    
   112   57   59 1    
   113   57  118 1    
   114   58  119 1    
   115   58  120 1    
   116   58  121 1    
   117   59   60 am   BACKBONE|DICT|INTERRES
   118   59  122 1    
   119   60   61 2    
   120   60   62 1    
   121   62   63 1    
   122   62   64 1    
   123   62  123 1    
   124   63  124 1    
   125   63  125 1    
   126   63  126 1    
   127   64   65 am   BACKBONE|DICT|INTERRES
   128   64  127 1    
   129   65   66 2    
@<TRIPOS>SUBSTRUCTURE
     1 UNK         1 GROUP             0       ****    0 ROOT    
