@<TRIPOS>MOLECULE
3R135
127   129    1
SMALL
USER_CHARGES


@<TRIPOS>ATOM
      1 CA        -84.0004   28.8112  -72.4720 C.3       0 UNK        -0.1998 
      2 C         -82.7056   28.1346  -72.8935 C.2       0 UNK         0.4909 
      3 O         -81.9699   28.6739  -73.7193 O.2       0 UNK        -0.5240 
      4 N         -82.4220   26.9438  -72.3507 N.am      1 UNK        -0.4739 
      5 CA        -81.2152   26.1457  -72.6119 C.3       1 UNK         0.0864 
      6 C6        -80.8199   25.3163  -71.3557 C.3       11 UNK        -0.0881 
      7 S7        -79.0249   25.3265  -71.0152 S.3       11 UNK        -0.2682 
      8 C8        -78.7982   26.8478  -70.0340 C.3       11 UNK         0.0289 
      9 C9        -78.0095   27.8811  -70.8240 C.ar      11 UNK        -0.0687 
     10 C10       -78.6679   28.7267  -71.7196 C.ar      11 UNK        -0.0823 
     11 C11       -77.9435   29.6051  -72.5270 C.ar      11 UNK        -0.0830 
     12 C12       -76.5570   29.6879  -72.3846 C.ar      11 UNK        -0.1021 
     13 C13       -75.8882   28.8792  -71.4622 C.ar      11 UNK        -0.0753 
     14 C14       -76.6187   27.9686  -70.6905 C.ar      11 UNK        -0.0933 
     15 C15       -74.3732   28.9555  -71.3513 C.3       11 UNK         0.0166 
     16 S16       -73.8058   30.6210  -70.8887 S.3       11 UNK        -0.2615 
     17 C17       -72.0011   30.4505  -71.0919 C.3       11 UNK        -0.0865 
     18 CA        -71.4952   30.9972  -72.4539 C.3       10 UNK         0.0862 
     19 C         -69.9472   31.1310  -72.4365 C.2       10 UNK         0.5551 
     20 N         -69.4288   32.3374  -72.2525 N.am      10 UNK        -0.7319 
     21 O         -69.2190   30.1459  -72.5345 O.2       10 UNK        -0.5018 
     22 N         -71.9757   30.1731  -73.5748 N.am      10 UNK        -0.4509 
     23 C         -71.8047   30.4417  -74.8760 C.2       10 UNK         0.4899 
     24 O         -71.2937   31.4837  -75.2899 O.2       10 UNK        -0.4839 
     25 CA        -72.3178   29.3986  -75.8962 C.3       9 UNK         0.0222 
     26 CB        -71.4069   29.2993  -77.1379 C.3       9 UNK        -0.1966 
     27 N         -72.5891   28.0588  -75.3521 N.am      9 UNK        -0.4218 
     28 C         -71.7161   27.2214  -74.7686 C.2       9 UNK         0.5020 
     29 O         -70.5295   27.4846  -74.5752 O.2       9 UNK        -0.5274 
     30 CA        -72.2592   25.8601  -74.3082 C.3       8 UNK         0.0270 
     31 CB        -73.0586   25.9959  -73.0031 C.3       8 UNK        -0.1976 
     32 N         -73.0735   25.1963  -75.3289 N.am      8 UNK        -0.4313 
     33 C         -72.5587   24.6095  -76.4201 C.2       8 UNK         0.5041 
     34 O         -71.3545   24.5825  -76.6794 O.2       8 UNK        -0.5577 
     35 CA        -73.5389   23.9114  -77.3770 C.3       7 UNK         0.0284 
     36 CB        -73.9740   22.5519  -76.8077 C.3       7 UNK        -0.1958 
     37 N         -74.7151   24.7243  -77.6886 N.am      7 UNK        -0.4454 
     38 C         -74.6828   25.8448  -78.4244 C.2       7 UNK         0.5089 
     39 O         -73.6632   26.2954  -78.9475 O.2       7 UNK        -0.5125 
     40 CA        -76.0114   26.6014  -78.6006 C.3       6 UNK         0.0408 
     41 CB        -76.8460   25.9845  -79.7339 C.3       6 UNK        -0.1791 
     42 N         -76.8148   26.6584  -77.3783 N.am      6 UNK        -0.4762 
     43 C         -76.4254   27.2336  -76.2300 C.2       6 UNK         0.5007 
     44 O         -75.3317   27.7730  -76.0574 O.2       6 UNK        -0.5032 
     45 CA        -77.4135   27.1245  -75.0555 C.3       5 UNK         0.0783 
     46 C46       -78.6258   28.0827  -75.2345 C.3       11 UNK        -0.0857 
     47 S47       -78.1794   29.8572  -75.2672 S.3       11 UNK        -0.2512 
     48 C48       -78.6509   30.4175  -73.5983 C.3       11 UNK         0.0225 
     49 N         -77.8114   25.7200  -74.8737 N.am      5 UNK        -0.4615 
     50 C         -76.9614   24.7392  -74.5200 C.2       4 UNK         0.5053 
     51 O         -75.7867   24.9382  -74.2160 O.2       4 UNK        -0.5105 
     52 CA        -77.4547   23.2826  -74.5888 C.3       4 UNK         0.0263 
     53 CB        -77.9036   22.7562  -73.2192 C.3       4 UNK        -0.1981 
     54 N         -78.5138   23.0833  -75.5763 N.am      4 UNK        -0.4224 
     55 C         -78.2969   23.0693  -76.8998 C.2       3 UNK         0.4895 
     56 O         -77.1826   23.1868  -77.4087 O.2       3 UNK        -0.5091 
     57 CA        -79.5303   22.9592  -77.8131 C.3       3 UNK         0.0250 
     58 CB        -79.8648   21.4858  -78.0931 C.3       3 UNK        -0.1996 
     59 N         -80.7131   23.6386  -77.2759 N.am      3 UNK        -0.4254 
     60 C         -80.7716   24.9469  -76.9918 C.2       2 UNK         0.5004 
     61 O         -79.8342   25.7218  -77.1878 O.2       2 UNK        -0.5226 
     62 CA        -82.0609   25.4853  -76.3461 C.3       2 UNK         0.0269 
     63 CB        -83.2353   24.4799  -76.3312 C.3       2 UNK        -0.1926 
     64 N         -81.8115   26.0018  -74.9944 N.am      2 UNK        -0.4687 
     65 C         -81.3236   25.3403  -73.9326 C.2       1 UNK         0.5165 
     66 O         -80.9796   24.1584  -73.9771 O.2       1 UNK        -0.5079 
     67 H67       -83.7872   29.7851  -72.0322 H         1 UNK         0.0900 
     68 H68       -84.6438   28.9618  -73.3384 H         1 UNK         0.0900 
     69 H69       -84.5495   28.2205  -71.7390 H         1 UNK         0.0900 
     70 H70       -83.0879   26.5268  -71.7151 H         1 UNK         0.2959 
     71 H71       -80.4036   26.8435  -72.7988 H         1 UNK         0.1079 
     72 H72       -81.1565   24.2808  -71.4322 H         1 UNK         0.0837 
     73 H73       -81.3184   25.6989  -70.4637 H         1 UNK         0.0837 
     74 H74       -79.7601   27.2627  -69.7297 H         1 UNK         0.0685 
     75 H75       -78.2703   26.5970  -69.1127 H         1 UNK         0.0685 
     76 H76       -79.7425   28.6764  -71.8168 H         1 UNK         0.1434 
     77 H77       -75.9936   30.3653  -73.0123 H         1 UNK         0.1329 
     78 H78       -76.1051   27.3136  -70.0000 H         1 UNK         0.1335 
     79 H79       -73.9487   28.6935  -72.3185 H         1 UNK         0.0680 
     80 H80       -73.9946   28.2308  -70.6288 H         1 UNK         0.0680 
     81 H81       -71.7010   29.4101  -70.9518 H         1 UNK         0.1032 
     82 H82       -71.5418   31.0032  -70.2695 H         1 UNK         0.1032 
     83 H83       -71.9164   31.9950  -72.5941 H         1 UNK         0.0461 
     84 H84       -70.0193   33.1497  -72.1612 H         1 UNK         0.3453 
     85 H85       -68.4265   32.4411  -72.2197 H         1 UNK         0.3453 
     86 H86       -72.3782   29.2833  -73.3310 H         1 UNK         0.2984 
     87 H87       -73.2849   29.7736  -76.2341 H         1 UNK         0.0554 
     88 H88       -71.3247   30.2610  -77.6457 H         1 UNK         0.0847 
     89 H89       -71.8025   28.5863  -77.8619 H         1 UNK         0.0847 
     90 H90       -70.3972   28.9838  -76.8735 H         1 UNK         0.0847 
     91 H91       -73.5515   27.7480  -75.4782 H         1 UNK         0.3141 
     92 H92       -71.3983   25.2218  -74.0963 H         1 UNK         0.0743 
     93 H93       -73.9821   26.5547  -73.1532 H         1 UNK         0.0784 
     94 H94       -73.3291   25.0178  -72.6048 H         1 UNK         0.0784 
     95 H95       -72.4773   26.5083  -72.2354 H         1 UNK         0.0784 
     96 H96       -74.0748   25.1509  -75.1564 H         1 UNK         0.3213 
     97 H97       -73.0093   23.7255  -78.3141 H         1 UNK         0.0855 
     98 H98       -74.4962   22.6608  -75.8578 H         1 UNK         0.0814 
     99 H99       -73.1097   21.9104  -76.6309 H         1 UNK         0.0814 
    100 H100      -74.6335   22.0237  -77.4966 H         1 UNK         0.0814 
    101 H101      -75.6156   24.3746  -77.3734 H         1 UNK         0.3105 
    102 H102      -75.7702   27.6295  -78.8784 H         1 UNK         0.0547 
    103 H103      -76.2806   25.9630  -80.6665 H         1 UNK         0.0837 
    104 H104      -77.1411   24.9593  -79.5085 H         1 UNK         0.0837 
    105 H105      -77.7529   26.5606  -79.9184 H         1 UNK         0.0837 
    106 H106      -77.7363   26.2352  -77.4130 H         1 UNK         0.3020 
    107 H107      -76.8768   27.4224  -74.1519 H         1 UNK         0.1245 
    108 H108      -79.1573   27.8749  -76.1619 H         1 UNK         0.0781 
    109 H109      -79.3530   27.9229  -74.4423 H         1 UNK         0.0781 
    110 H110      -79.7350   30.3525  -73.4916 H         1 UNK         0.0836 
    111 H111      -78.3915   31.4712  -73.4865 H         1 UNK         0.0836 
    112 H112      -78.7323   25.4663  -75.2029 H         1 UNK         0.3022 
    113 H113      -76.5988   22.6769  -74.8906 H         1 UNK         0.0747 
    114 H114      -78.0349   21.6744  -73.2386 H         1 UNK         0.0793 
    115 H115      -77.1634   22.9793  -72.4493 H         1 UNK         0.0793 
    116 H116      -78.8474   23.1955  -72.9040 H         1 UNK         0.0793 
    117 H117      -79.4641   23.0403  -75.2272 H         1 UNK         0.3047 
    118 H118      -79.2767   23.4394  -78.7606 H         1 UNK         0.0822 
    119 H119      -80.6787   21.3929  -78.8124 H         1 UNK         0.0807 
    120 H120      -80.1556   20.9566  -77.1847 H         1 UNK         0.0807 
    121 H121      -79.0033   20.9641  -78.5127 H         1 UNK         0.0807 
    122 H122      -81.5179   23.0648  -77.0691 H         1 UNK         0.2946 
    123 H123      -82.3638   26.3383  -76.9557 H         1 UNK         0.1144 
    124 H124      -83.4739   24.1348  -77.3382 H         1 UNK         0.0793 
    125 H125      -84.1382   24.9456  -75.9358 H         1 UNK         0.0793 
    126 H126      -83.0266   23.6032  -75.7170 H         1 UNK         0.0793 
    127 H127      -82.0115   26.9878  -74.8564 H         1 UNK         0.2896 
@<TRIPOS>BOND
     1    1    2 1    
     2    1   67 1    
     3    1   68 1    
     4    1   69 1    
     5    2    3 2    
     6    2    4 am   BACKBONE|DICT|INTERRES
     7    4    5 1    
     8    4   70 1    
     9    5    6 1    
    10    5   65 1    
    11    5   71 1    
    12    6    7 1    
    13    6   72 1    
    14    6   73 1    
    15    7    8 1    
    16    8    9 1    
    17    8   74 1    
    18    8   75 1    
    19    9   10 ar   
    20    9   14 ar   
    21   10   11 ar   
    22   10   76 1    
    23   11   12 ar   
    24   11   48 1    
    25   12   13 ar   
    26   12   77 1    
    27   13   14 ar   
    28   13   15 1    
    29   14   78 1    
    30   15   16 1    
    31   15   79 1    
    32   15   80 1    
    33   16   17 1    
    34   17   18 1    
    35   17   81 1    
    36   17   82 1    
    37   18   19 1    
    38   18   22 1    
    39   18   83 1    
    40   19   20 am   BACKBONE|DICT|INTERRES
    41   19   21 2    
    42   20   84 1    
    43   20   85 1    
    44   22   23 am   BACKBONE|DICT|INTERRES
    45   22   86 1    
    46   23   24 2    
    47   23   25 1    
    48   25   26 1    
    49   25   27 1    
    50   25   87 1    
    51   26   88 1    
    52   26   89 1    
    53   26   90 1    
    54   27   28 am   BACKBONE|DICT|INTERRES
    55   27   91 1    
    56   28   29 2    
    57   28   30 1    
    58   30   31 1    
    59   30   32 1    
    60   30   92 1    
    61   31   93 1    
    62   31   94 1    
    63   31   95 1    
    64   32   33 am   BACKBONE|DICT|INTERRES
    65   32   96 1    
    66   33   34 2    
    67   33   35 1    
    68   35   36 1    
    69   35   37 1    
    70   35   97 1    
    71   36   98 1    
    72   36   99 1    
    73   36  100 1    
    74   37   38 am   BACKBONE|DICT|INTERRES
    75   37  101 1    
    76   38   39 2    
    77   38   40 1    
    78   40   41 1    
    79   40   42 1    
    80   40  102 1    
    81   41  103 1    
    82   41  104 1    
    83   41  105 1    
    84   42   43 am   BACKBONE|DICT|INTERRES
    85   42  106 1    
    86   43   44 2    
    87   43   45 1    
    88   45   46 1    
    89   45   49 1    
    90   45  107 1    
    91   46   47 1    
    92   46  108 1    
    93   46  109 1    
    94   47   48 1    
    95   48  110 1    
    96   48  111 1    
    97   49   50 am   BACKBONE|DICT|INTERRES
    98   49  112 1    
    99   50   51 2    
   100   50   52 1    
   101   52   53 1    
   102   52   54 1    
   103   52  113 1    
   104   53  114 1    
   105   53  115 1    
   106   53  116 1    
   107   54   55 am   BACKBONE|DICT|INTERRES
   108   54  117 1    
   109   55   56 2    
   110   55   57 1    
   111   57   58 1    
   112   57   59 1    
   113   57  118 1    
   114   58  119 1    
   115   58  120 1    
   116   58  121 1    
   117   59   60 am   BACKBONE|DICT|INTERRES
   118   59  122 1    
   119   60   61 2    
   120   60   62 1    
   121   62   63 1    
   122   62   64 1    
   123   62  123 1    
   124   63  124 1    
   125   63  125 1    
   126   63  126 1    
   127   64   65 am   BACKBONE|DICT|INTERRES
   128   64  127 1    
   129   65   66 2    
@<TRIPOS>SUBSTRUCTURE
     1 UNK         1 GROUP             0       ****    0 ROOT    
