@<TRIPOS>MOLECULE
3R135
127   129    1
SMALL
USER_CHARGES


@<TRIPOS>ATOM
      1 CA        -84.4016   25.0815  -73.6253 C.3       0 UNK        -0.1998 
      2 C         -83.6202   26.3759  -73.7887 C.2       0 UNK         0.4909 
      3 O         -83.5306   26.9030  -74.8979 O.2       0 UNK        -0.5240 
      4 N         -83.0509   26.8960  -72.6945 N.am      1 UNK        -0.4739 
      5 CA        -82.1653   28.0647  -72.6939 C.3       1 UNK         0.0864 
      6 C6        -81.9549   28.6422  -71.2694 C.3       11 UNK        -0.0881 
      7 S7        -81.4656   27.4117  -70.0073 S.3       11 UNK        -0.2682 
      8 C8        -79.9385   28.1392  -69.3312 C.3       11 UNK         0.0289 
      9 C9        -78.7768   28.0596  -70.3110 C.ar      11 UNK        -0.0687 
     10 C10       -78.2043   26.8225  -70.6168 C.ar      11 UNK        -0.0823 
     11 C11       -77.1271   26.7233  -71.5032 C.ar      11 UNK        -0.0830 
     12 C12       -76.6190   27.8953  -72.0814 C.ar      11 UNK        -0.1021 
     13 C13       -77.1903   29.1404  -71.7910 C.ar      11 UNK        -0.0753 
     14 C14       -78.2653   29.2170  -70.9021 C.ar      11 UNK        -0.0933 
     15 C15       -76.6768   30.3988  -72.4716 C.3       11 UNK         0.0166 
     16 S16       -75.2316   31.0959  -71.6123 S.3       11 UNK        -0.2615 
     17 C17       -74.6490   32.2905  -72.8737 C.3       11 UNK        -0.0865 
     18 CA        -73.4806   31.7561  -73.7504 C.3       10 UNK         0.0862 
     19 C         -72.1000   31.8702  -73.0379 C.2       10 UNK         0.5551 
     20 N         -71.3416   30.7954  -72.8571 N.am      10 UNK        -0.7319 
     21 O         -71.7002   32.9674  -72.6555 O.2       10 UNK        -0.5018 
     22 N         -73.7944   30.4199  -74.2678 N.am      10 UNK        -0.4509 
     23 C         -73.3460   29.8717  -75.3979 C.2       10 UNK         0.4899 
     24 O         -72.6396   30.4465  -76.2276 O.2       10 UNK        -0.4839 
     25 CA        -73.7770   28.4124  -75.6199 C.3       9 UNK         0.0222 
     26 CB        -74.6200   28.2755  -76.8981 C.3       9 UNK        -0.1966 
     27 N         -72.6476   27.4770  -75.6531 N.am      9 UNK        -0.4218 
     28 C         -71.7200   27.3456  -74.6883 C.2       9 UNK         0.5020 
     29 O         -71.7186   28.0181  -73.6554 O.2       9 UNK        -0.5274 
     30 CA        -70.6221   26.2741  -74.8557 C.3       8 UNK         0.0270 
     31 CB        -70.7254   25.2246  -73.7345 C.3       8 UNK        -0.1976 
     32 N         -70.6467   25.5791  -76.1429 N.am      8 UNK        -0.4313 
     33 C         -70.2414   26.0805  -77.3170 C.2       8 UNK         0.5041 
     34 O         -69.7144   27.1859  -77.4426 O.2       8 UNK        -0.5577 
     35 CA        -70.4879   25.2104  -78.5679 C.3       7 UNK         0.0284 
     36 CB        -69.1790   24.5457  -79.0254 C.3       7 UNK        -0.1958 
     37 N         -71.5196   24.1749  -78.3974 N.am      7 UNK        -0.4454 
     38 C         -72.8083   24.4085  -78.1074 C.2       7 UNK         0.5089 
     39 O         -73.2593   25.5438  -77.9518 O.2       7 UNK        -0.5125 
     40 CA        -73.7353   23.1933  -77.9034 C.3       6 UNK         0.0408 
     41 CB        -73.0058   21.8337  -77.9118 C.3       6 UNK        -0.1791 
     42 N         -74.4425   23.3434  -76.6296 N.am      6 UNK        -0.4762 
     43 C         -75.6714   23.8563  -76.4839 C.2       6 UNK         0.5007 
     44 O         -76.4060   24.1597  -77.4275 O.2       6 UNK        -0.5032 
     45 CA        -76.1305   24.0855  -75.0294 C.3       5 UNK         0.0783 
     46 C46       -75.5329   25.3967  -74.4469 C.3       11 UNK        -0.0857 
     47 S47       -75.0020   25.2226  -72.7129 S.3       11 UNK        -0.2512 
     48 C48       -76.5795   25.3235  -71.7954 C.3       11 UNK         0.0225 
     49 N         -77.5914   24.1186  -74.9828 N.am      5 UNK        -0.4615 
     50 C         -78.3805   23.0705  -74.7169 C.2       4 UNK         0.5053 
     51 O         -77.9523   21.9548  -74.4202 O.2       4 UNK        -0.5105 
     52 CA        -79.9042   23.2942  -74.7720 C.3       4 UNK         0.0263 
     53 CB        -80.4936   23.3300  -73.3518 C.3       4 UNK        -0.1981 
     54 N         -80.2678   24.5243  -75.4816 N.am      4 UNK        -0.4224 
     55 C         -80.3008   24.6329  -76.8199 C.2       3 UNK         0.4895 
     56 O         -80.1458   23.6762  -77.5798 O.2       3 UNK        -0.5091 
     57 CA        -80.5344   26.0285  -77.4320 C.3       3 UNK         0.0250 
     58 CB        -81.9525   26.1350  -78.0160 C.3       3 UNK        -0.1996 
     59 N         -80.3092   27.1344  -76.4974 N.am      3 UNK        -0.4254 
     60 C         -79.1096   27.4908  -76.0142 C.2       2 UNK         0.5004 
     61 O         -78.0560   26.9486  -76.3416 O.2       2 UNK        -0.5226 
     62 CA        -79.0750   28.6007  -74.9477 C.3       2 UNK         0.0269 
     63 CB        -78.7336   29.9553  -75.5882 C.3       2 UNK        -0.1926 
     64 N         -80.3069   28.7287  -74.1583 N.am      2 UNK        -0.4687 
     65 C         -80.8381   27.7472  -73.4145 C.2       1 UNK         0.5165 
     66 O         -80.3431   26.6209  -73.3283 O.2       1 UNK        -0.5079 
     67 H67       -85.4449   25.2359  -73.8991 H         1 UNK         0.0900 
     68 H68       -83.9881   24.3112  -74.2757 H         1 UNK         0.0900 
     69 H69       -84.3691   24.7132  -72.6000 H         1 UNK         0.0900 
     70 H70       -83.1168   26.4112  -71.8105 H         1 UNK         0.2959 
     71 H71       -82.6679   28.8377  -73.2801 H         1 UNK         0.1079 
     72 H72       -82.8894   29.0912  -70.9295 H         1 UNK         0.0837 
     73 H73       -81.2368   29.4637  -71.2922 H         1 UNK         0.0837 
     74 H74       -79.6699   27.6029  -68.4201 H         1 UNK         0.0685 
     75 H75       -80.1302   29.1706  -69.0310 H         1 UNK         0.0685 
     76 H76       -78.6118   25.9279  -70.1655 H         1 UNK         0.1434 
     77 H77       -75.7881   27.8493  -72.7688 H         1 UNK         0.1329 
     78 H78       -78.7063   30.1779  -70.6753 H         1 UNK         0.1335 
     79 H79       -77.4625   31.1548  -72.5148 H         1 UNK         0.0680 
     80 H80       -76.4234   30.1682  -73.5067 H         1 UNK         0.0680 
     81 H81       -74.3713   33.2205  -72.3736 H         1 UNK         0.1032 
     82 H82       -75.4869   32.5602  -73.5185 H         1 UNK         0.1032 
     83 H83       -73.4047   32.4231  -74.6113 H         1 UNK         0.0461 
     84 H84       -71.6417   29.8767  -73.1714 H         1 UNK         0.3453 
     85 H85       -70.4509   30.8965  -72.3982 H         1 UNK         0.3453 
     86 H86       -74.3093   29.8401  -73.6221 H         1 UNK         0.2984 
     87 H87       -74.4082   28.1123  -74.7820 H         1 UNK         0.0554 
     88 H88       -75.4402   28.9943  -76.9069 H         1 UNK         0.0847 
     89 H89       -75.0678   27.2844  -76.9773 H         1 UNK         0.0847 
     90 H90       -74.0234   28.4474  -77.7948 H         1 UNK         0.0847 
     91 H91       -72.5882   26.8806  -76.4710 H         1 UNK         0.3141 
     92 H92       -69.6608   26.7834  -74.7606 H         1 UNK         0.0743 
     93 H93       -69.9260   24.4865  -73.8037 H         1 UNK         0.0784 
     94 H94       -70.6451   25.6918  -72.7519 H         1 UNK         0.0784 
     95 H95       -71.6789   24.6953  -73.7634 H         1 UNK         0.0784 
     96 H96       -71.0530   24.6557  -76.1474 H         1 UNK         0.3213 
     97 H97       -70.8258   25.8821  -79.3601 H         1 UNK         0.0855 
     98 H98       -68.8022   23.8412  -78.2828 H         1 UNK         0.0814 
     99 H99       -68.3998   25.2911  -79.1911 H         1 UNK         0.0814 
    100 H100      -69.3123   24.0077  -79.9642 H         1 UNK         0.0814 
    101 H101      -71.2198   23.2169  -78.5087 H         1 UNK         0.3105 
    102 H102      -74.4461   23.1936  -78.7320 H         1 UNK         0.0547 
    103 H103      -72.2489   21.7647  -77.1293 H         1 UNK         0.0837 
    104 H104      -72.5199   21.6475  -78.8705 H         1 UNK         0.0837 
    105 H105      -73.7098   21.0158  -77.7568 H         1 UNK         0.0837 
    106 H106      -73.9037   23.1427  -75.7989 H         1 UNK         0.3020 
    107 H107      -75.7710   23.2338  -74.4467 H         1 UNK         0.1245 
    108 H108      -76.2235   26.2356  -74.5417 H         1 UNK         0.0781 
    109 H109      -74.6375   25.6957  -74.9921 H         1 UNK         0.0781 
    110 H110      -76.4250   24.8140  -70.8431 H         1 UNK         0.0836 
    111 H111      -77.3427   24.7493  -72.3201 H         1 UNK         0.0836 
    112 H112      -78.0127   24.9768  -75.3160 H         1 UNK         0.3022 
    113 H113      -80.3438   22.4429  -75.2962 H         1 UNK         0.0747 
    114 H114      -81.5676   23.5149  -73.3689 H         1 UNK         0.0793 
    115 H115      -80.3358   22.3785  -72.8426 H         1 UNK         0.0793 
    116 H116      -80.0292   24.1035  -72.7392 H         1 UNK         0.0793 
    117 H117      -80.3937   25.3529  -74.9071 H         1 UNK         0.3047 
    118 H118      -79.8218   26.1387  -78.2525 H         1 UNK         0.0822 
    119 H119      -82.1154   27.1003  -78.4955 H         1 UNK         0.0807 
    120 H120      -82.7163   26.0058  -77.2491 H         1 UNK         0.0807 
    121 H121      -82.1207   25.3669  -78.7721 H         1 UNK         0.0807 
    122 H122      -81.1304   27.6104  -76.1502 H         1 UNK         0.2946 
    123 H123      -78.2750   28.3337  -74.2571 H         1 UNK         0.1144 
    124 H124      -78.6258   30.7372  -74.8367 H         1 UNK         0.0793 
    125 H125      -79.5023   30.2721  -76.2941 H         1 UNK         0.0793 
    126 H126      -77.7912   29.9013  -76.1350 H         1 UNK         0.0793 
    127 H127      -80.7730   29.6240  -74.1954 H         1 UNK         0.2896 
@<TRIPOS>BOND
     1    1    2 1    
     2    1   67 1    
     3    1   68 1    
     4    1   69 1    
     5    2    3 2    
     6    2    4 am   BACKBONE|DICT|INTERRES
     7    4    5 1    
     8    4   70 1    
     9    5    6 1    
    10    5   65 1    
    11    5   71 1    
    12    6    7 1    
    13    6   72 1    
    14    6   73 1    
    15    7    8 1    
    16    8    9 1    
    17    8   74 1    
    18    8   75 1    
    19    9   10 ar   
    20    9   14 ar   
    21   10   11 ar   
    22   10   76 1    
    23   11   12 ar   
    24   11   48 1    
    25   12   13 ar   
    26   12   77 1    
    27   13   14 ar   
    28   13   15 1    
    29   14   78 1    
    30   15   16 1    
    31   15   79 1    
    32   15   80 1    
    33   16   17 1    
    34   17   18 1    
    35   17   81 1    
    36   17   82 1    
    37   18   19 1    
    38   18   22 1    
    39   18   83 1    
    40   19   20 am   BACKBONE|DICT|INTERRES
    41   19   21 2    
    42   20   84 1    
    43   20   85 1    
    44   22   23 am   BACKBONE|DICT|INTERRES
    45   22   86 1    
    46   23   24 2    
    47   23   25 1    
    48   25   26 1    
    49   25   27 1    
    50   25   87 1    
    51   26   88 1    
    52   26   89 1    
    53   26   90 1    
    54   27   28 am   BACKBONE|DICT|INTERRES
    55   27   91 1    
    56   28   29 2    
    57   28   30 1    
    58   30   31 1    
    59   30   32 1    
    60   30   92 1    
    61   31   93 1    
    62   31   94 1    
    63   31   95 1    
    64   32   33 am   BACKBONE|DICT|INTERRES
    65   32   96 1    
    66   33   34 2    
    67   33   35 1    
    68   35   36 1    
    69   35   37 1    
    70   35   97 1    
    71   36   98 1    
    72   36   99 1    
    73   36  100 1    
    74   37   38 am   BACKBONE|DICT|INTERRES
    75   37  101 1    
    76   38   39 2    
    77   38   40 1    
    78   40   41 1    
    79   40   42 1    
    80   40  102 1    
    81   41  103 1    
    82   41  104 1    
    83   41  105 1    
    84   42   43 am   BACKBONE|DICT|INTERRES
    85   42  106 1    
    86   43   44 2    
    87   43   45 1    
    88   45   46 1    
    89   45   49 1    
    90   45  107 1    
    91   46   47 1    
    92   46  108 1    
    93   46  109 1    
    94   47   48 1    
    95   48  110 1    
    96   48  111 1    
    97   49   50 am   BACKBONE|DICT|INTERRES
    98   49  112 1    
    99   50   51 2    
   100   50   52 1    
   101   52   53 1    
   102   52   54 1    
   103   52  113 1    
   104   53  114 1    
   105   53  115 1    
   106   53  116 1    
   107   54   55 am   BACKBONE|DICT|INTERRES
   108   54  117 1    
   109   55   56 2    
   110   55   57 1    
   111   57   58 1    
   112   57   59 1    
   113   57  118 1    
   114   58  119 1    
   115   58  120 1    
   116   58  121 1    
   117   59   60 am   BACKBONE|DICT|INTERRES
   118   59  122 1    
   119   60   61 2    
   120   60   62 1    
   121   62   63 1    
   122   62   64 1    
   123   62  123 1    
   124   63  124 1    
   125   63  125 1    
   126   63  126 1    
   127   64   65 am   BACKBONE|DICT|INTERRES
   128   64  127 1    
   129   65   66 2    
@<TRIPOS>SUBSTRUCTURE
     1 UNK         1 GROUP             0       ****    0 ROOT    
