@<TRIPOS>MOLECULE
3R135
127   129    1
SMALL
USER_CHARGES


@<TRIPOS>ATOM
      1 CA        -86.5089   28.9948  -74.5992 C.3       0 UNK        -0.1998 
      2 C         -84.9911   29.0653  -74.5179 C.2       0 UNK         0.4909 
      3 O         -84.3891   29.9625  -75.1083 O.2       0 UNK        -0.5240 
      4 N         -84.3739   28.1230  -73.7987 N.am      1 UNK        -0.4739 
      5 CA        -82.9278   27.9941  -73.6211 C.3       1 UNK         0.0864 
      6 C6        -82.4311   28.7205  -72.3367 C.3       11 UNK        -0.0881 
      7 S7        -81.6739   30.3398  -72.6973 S.3       11 UNK        -0.2682 
      8 C8        -80.0654   29.8614  -73.4098 C.3       11 UNK         0.0289 
      9 C9        -79.0096   29.5625  -72.3541 C.ar      11 UNK        -0.0687 
     10 C10       -78.9459   28.3061  -71.7450 C.ar      11 UNK        -0.0823 
     11 C11       -77.9276   28.0044  -70.8362 C.ar      11 UNK        -0.0830 
     12 C12       -76.9663   28.9718  -70.5304 C.ar      11 UNK        -0.1021 
     13 C13       -76.9982   30.2186  -71.1621 C.ar      11 UNK        -0.0753 
     14 C14       -78.0350   30.5174  -72.0511 C.ar      11 UNK        -0.0933 
     15 C15       -75.8760   31.2207  -70.9466 C.3       11 UNK         0.0166 
     16 S16       -74.6344   31.0972  -72.2777 S.3       11 UNK        -0.2615 
     17 C17       -73.7699   29.5515  -71.8325 C.3       11 UNK        -0.0865 
     18 CA        -72.3513   29.4759  -72.4610 C.3       10 UNK         0.0862 
     19 C         -71.4332   28.4424  -71.7393 C.2       10 UNK         0.5551 
     20 N         -70.6136   27.6651  -72.4366 N.am      10 UNK        -0.7319 
     21 O         -71.4462   28.3534  -70.5141 O.2       10 UNK        -0.5018 
     22 N         -72.4171   29.2817  -73.9209 N.am      10 UNK        -0.4509 
     23 C         -71.5876   29.8424  -74.8087 C.2       10 UNK         0.4899 
     24 O         -70.7306   30.6787  -74.5172 O.2       10 UNK        -0.4839 
     25 CA        -71.7235   29.3444  -76.2624 C.3       9 UNK         0.0222 
     26 CB        -70.6629   29.9430  -77.2099 C.3       9 UNK        -0.1966 
     27 N         -71.7275   27.8785  -76.3535 N.am      9 UNK        -0.4218 
     28 C         -70.7905   27.0271  -75.9073 C.2       9 UNK         0.5020 
     29 O         -69.7410   27.3866  -75.3724 O.2       9 UNK        -0.5274 
     30 CA        -71.0740   25.5164  -76.0208 C.3       8 UNK         0.0270 
     31 CB        -71.2903   24.9115  -74.6235 C.3       8 UNK        -0.1976 
     32 N         -72.2255   25.1864  -76.8648 N.am      8 UNK        -0.4313 
     33 C         -72.2273   25.2308  -78.2040 C.2       8 UNK         0.5041 
     34 O         -71.2377   25.5112  -78.8814 O.2       8 UNK        -0.5577 
     35 CA        -73.5658   24.9436  -78.9057 C.3       7 UNK         0.0284 
     36 CB        -73.7987   23.4296  -79.0334 C.3       7 UNK        -0.1958 
     37 N         -74.7092   25.5637  -78.2297 N.am      7 UNK        -0.4454 
     38 C         -74.8952   26.8856  -78.0984 C.2       7 UNK         0.5089 
     39 O         -74.1393   27.7357  -78.5678 O.2       7 UNK        -0.5125 
     40 CA        -76.0964   27.3367  -77.2511 C.3       6 UNK         0.0408 
     41 CB        -77.4061   27.2426  -78.0487 C.3       6 UNK        -0.1791 
     42 N         -76.2143   26.5750  -76.0071 N.am      6 UNK        -0.4762 
     43 C         -75.3076   26.5966  -75.0181 C.2       6 UNK         0.5007 
     44 O         -74.3013   27.3062  -75.0190 O.2       6 UNK        -0.5032 
     45 CA        -75.5602   25.6645  -73.8211 C.3       5 UNK         0.0783 
     46 C46       -76.5253   26.3532  -72.8401 C.3       11 UNK        -0.0857 
     47 S47       -76.5373   25.6009  -71.1775 S.3       11 UNK        -0.2512 
     48 C48       -77.7989   26.5891  -70.2882 C.3       11 UNK         0.0225 
     49 N         -76.0460   24.3501  -74.2447 N.am      5 UNK        -0.4615 
     50 C         -75.3379   23.4784  -74.9741 C.2       4 UNK         0.5053 
     51 O         -74.1796   23.6707  -75.3411 O.2       4 UNK        -0.5105 
     52 CA        -76.0705   22.2022  -75.4146 C.3       4 UNK         0.0263 
     53 CB        -76.1277   21.1817  -74.2668 C.3       4 UNK        -0.1981 
     54 N         -77.4247   22.4786  -75.9019 N.am      4 UNK        -0.4224 
     55 C         -77.7014   23.2128  -76.9898 C.2       3 UNK         0.4895 
     56 O         -76.8437   23.7091  -77.7192 O.2       3 UNK        -0.5091 
     57 CA        -79.1848   23.4655  -77.2994 C.3       3 UNK         0.0250 
     58 CB        -79.7638   22.3156  -78.1389 C.3       3 UNK        -0.1996 
     59 N         -80.0072   23.6658  -76.1017 N.am      3 UNK        -0.4254 
     60 C         -79.8879   24.7056  -75.2651 C.2       2 UNK         0.5004 
     61 O         -79.0300   25.5862  -75.3737 O.2       2 UNK        -0.5226 
     62 CA        -80.8803   24.7683  -74.1006 C.3       2 UNK         0.0269 
     63 CB        -80.2160   24.3268  -72.7848 C.3       2 UNK        -0.1926 
     64 N         -81.3613   26.1427  -73.9844 N.am      2 UNK        -0.4687 
     65 C         -82.5923   26.4923  -73.5913 C.2       1 UNK         0.5165 
     66 O         -83.4435   25.6846  -73.2065 O.2       1 UNK        -0.5079 
     67 H67       -86.9091   28.1552  -74.0310 H         1 UNK         0.0900 
     68 H68       -86.9482   29.9107  -74.2048 H         1 UNK         0.0900 
     69 H69       -86.8247   28.8839  -75.6362 H         1 UNK         0.0900 
     70 H70       -84.9027   27.3636  -73.3867 H         1 UNK         0.2959 
     71 H71       -82.4338   28.4005  -74.5064 H         1 UNK         0.1079 
     72 H72       -83.2599   28.8866  -71.6461 H         1 UNK         0.0837 
     73 H73       -81.7216   28.1273  -71.7622 H         1 UNK         0.0837 
     74 H74       -79.7251   30.6768  -74.0500 H         1 UNK         0.0685 
     75 H75       -80.1808   29.0020  -74.0701 H         1 UNK         0.0685 
     76 H76       -79.6511   27.5361  -72.0193 H         1 UNK         0.1434 
     77 H77       -76.1543   28.7266  -69.8594 H         1 UNK         0.1329 
     78 H78       -78.0517   31.4787  -72.5466 H         1 UNK         0.1335 
     79 H79       -76.2847   32.2322  -70.9374 H         1 UNK         0.0680 
     80 H80       -75.4019   31.0741  -69.9749 H         1 UNK         0.0680 
     81 H81       -74.3722   28.6957  -72.1379 H         1 UNK         0.1032 
     82 H82       -73.7151   29.5107  -70.7433 H         1 UNK         0.1032 
     83 H83       -71.8714   30.4361  -72.2626 H         1 UNK         0.0461 
     84 H84       -70.0236   27.0154  -71.9423 H         1 UNK         0.3453 
     85 H85       -70.5225   27.7632  -73.4393 H         1 UNK         0.3453 
     86 H86       -73.0810   28.5871  -74.2541 H         1 UNK         0.2984 
     87 H87       -72.7035   29.6739  -76.6108 H         1 UNK         0.0554 
     88 H88       -70.7199   31.0320  -77.2220 H         1 UNK         0.0847 
     89 H89       -70.8095   29.5997  -78.2341 H         1 UNK         0.0847 
     90 H90       -69.6504   29.6733  -76.9075 H         1 UNK         0.0847 
     91 H91       -72.5781   27.4755  -76.7256 H         1 UNK         0.3141 
     92 H92       -70.1865   25.0532  -76.4569 H         1 UNK         0.0743 
     93 H93       -70.4217   25.0763  -73.9848 H         1 UNK         0.0784 
     94 H94       -72.1526   25.3540  -74.1233 H         1 UNK         0.0784 
     95 H95       -71.4496   23.8343  -74.6769 H         1 UNK         0.0784 
     96 H96       -73.0624   24.8632  -76.3844 H         1 UNK         0.3213 
     97 H97       -73.5082   25.3653  -79.9114 H         1 UNK         0.0855 
     98 H98       -73.9007   22.9525  -78.0580 H         1 UNK         0.0814 
     99 H99       -72.9667   22.9479  -79.5486 H         1 UNK         0.0814 
    100 H100      -74.7022   23.2151  -79.6046 H         1 UNK         0.0814 
    101 H101      -75.4147   24.9331  -77.8536 H         1 UNK         0.3105 
    102 H102      -75.9410   28.3838  -76.9824 H         1 UNK         0.0547 
    103 H103      -78.2546   27.5936  -77.4610 H         1 UNK         0.0837 
    104 H104      -77.6183   26.2213  -78.3637 H         1 UNK         0.0837 
    105 H105      -77.3576   27.8567  -78.9488 H         1 UNK         0.0837 
    106 H106      -77.0475   26.0064  -75.8934 H         1 UNK         0.3020 
    107 H107      -74.5987   25.5215  -73.3226 H         1 UNK         0.1245 
    108 H108      -77.5391   26.3627  -73.2425 H         1 UNK         0.0781 
    109 H109      -76.2348   27.3979  -72.7216 H         1 UNK         0.0781 
    110 H110      -77.5412   26.6252  -69.2288 H         1 UNK         0.0836 
    111 H111      -78.7577   26.0720  -70.3469 H         1 UNK         0.0836 
    112 H112      -76.9986   24.1246  -74.0029 H         1 UNK         0.3022 
    113 H113      -75.5022   21.7613  -76.2365 H         1 UNK         0.0747 
    114 H114      -76.5714   20.2413  -74.5943 H         1 UNK         0.0793 
    115 H115      -75.1261   20.9542  -73.8989 H         1 UNK         0.0793 
    116 H116      -76.7091   21.5512  -73.4210 H         1 UNK         0.0793 
    117 H117      -78.1936   22.1039  -75.3661 H         1 UNK         0.3047 
    118 H118      -79.2411   24.3795  -77.8945 H         1 UNK         0.0822 
    119 H119      -80.7869   22.5273  -78.4502 H         1 UNK         0.0807 
    120 H120      -79.7671   21.3729  -77.5901 H         1 UNK         0.0807 
    121 H121      -79.1773   22.1622  -79.0461 H         1 UNK         0.0807 
    122 H122      -80.7347   22.9845  -75.9366 H         1 UNK         0.2946 
    123 H123      -81.7203   24.1039  -74.3180 H         1 UNK         0.1144 
    124 H124      -79.3658   24.9586  -72.5301 H         1 UNK         0.0793 
    125 H125      -79.8521   23.3009  -72.8538 H         1 UNK         0.0793 
    126 H126      -80.9201   24.3647  -71.9535 H         1 UNK         0.0793 
    127 H127      -80.7179   26.8385  -74.3387 H         1 UNK         0.2896 
@<TRIPOS>BOND
     1    1    2 1    
     2    1   67 1    
     3    1   68 1    
     4    1   69 1    
     5    2    3 2    
     6    2    4 am   BACKBONE|DICT|INTERRES
     7    4    5 1    
     8    4   70 1    
     9    5    6 1    
    10    5   65 1    
    11    5   71 1    
    12    6    7 1    
    13    6   72 1    
    14    6   73 1    
    15    7    8 1    
    16    8    9 1    
    17    8   74 1    
    18    8   75 1    
    19    9   10 ar   
    20    9   14 ar   
    21   10   11 ar   
    22   10   76 1    
    23   11   12 ar   
    24   11   48 1    
    25   12   13 ar   
    26   12   77 1    
    27   13   14 ar   
    28   13   15 1    
    29   14   78 1    
    30   15   16 1    
    31   15   79 1    
    32   15   80 1    
    33   16   17 1    
    34   17   18 1    
    35   17   81 1    
    36   17   82 1    
    37   18   19 1    
    38   18   22 1    
    39   18   83 1    
    40   19   20 am   BACKBONE|DICT|INTERRES
    41   19   21 2    
    42   20   84 1    
    43   20   85 1    
    44   22   23 am   BACKBONE|DICT|INTERRES
    45   22   86 1    
    46   23   24 2    
    47   23   25 1    
    48   25   26 1    
    49   25   27 1    
    50   25   87 1    
    51   26   88 1    
    52   26   89 1    
    53   26   90 1    
    54   27   28 am   BACKBONE|DICT|INTERRES
    55   27   91 1    
    56   28   29 2    
    57   28   30 1    
    58   30   31 1    
    59   30   32 1    
    60   30   92 1    
    61   31   93 1    
    62   31   94 1    
    63   31   95 1    
    64   32   33 am   BACKBONE|DICT|INTERRES
    65   32   96 1    
    66   33   34 2    
    67   33   35 1    
    68   35   36 1    
    69   35   37 1    
    70   35   97 1    
    71   36   98 1    
    72   36   99 1    
    73   36  100 1    
    74   37   38 am   BACKBONE|DICT|INTERRES
    75   37  101 1    
    76   38   39 2    
    77   38   40 1    
    78   40   41 1    
    79   40   42 1    
    80   40  102 1    
    81   41  103 1    
    82   41  104 1    
    83   41  105 1    
    84   42   43 am   BACKBONE|DICT|INTERRES
    85   42  106 1    
    86   43   44 2    
    87   43   45 1    
    88   45   46 1    
    89   45   49 1    
    90   45  107 1    
    91   46   47 1    
    92   46  108 1    
    93   46  109 1    
    94   47   48 1    
    95   48  110 1    
    96   48  111 1    
    97   49   50 am   BACKBONE|DICT|INTERRES
    98   49  112 1    
    99   50   51 2    
   100   50   52 1    
   101   52   53 1    
   102   52   54 1    
   103   52  113 1    
   104   53  114 1    
   105   53  115 1    
   106   53  116 1    
   107   54   55 am   BACKBONE|DICT|INTERRES
   108   54  117 1    
   109   55   56 2    
   110   55   57 1    
   111   57   58 1    
   112   57   59 1    
   113   57  118 1    
   114   58  119 1    
   115   58  120 1    
   116   58  121 1    
   117   59   60 am   BACKBONE|DICT|INTERRES
   118   59  122 1    
   119   60   61 2    
   120   60   62 1    
   121   62   63 1    
   122   62   64 1    
   123   62  123 1    
   124   63  124 1    
   125   63  125 1    
   126   63  126 1    
   127   64   65 am   BACKBONE|DICT|INTERRES
   128   64  127 1    
   129   65   66 2    
@<TRIPOS>SUBSTRUCTURE
     1 UNK         1 GROUP             0       ****    0 ROOT    
