@<TRIPOS>MOLECULE
3R135
127   129    1
SMALL
USER_CHARGES


@<TRIPOS>ATOM
      1 CA        -82.4494   30.0165  -76.1833 C.3       0 UNK        -0.1998 
      2 C         -81.2426   29.5592  -75.3785 C.2       0 UNK         0.4909 
      3 O         -80.1469   30.0897  -75.5612 O.2       0 UNK        -0.5240 
      4 N         -81.4288   28.5667  -74.4991 N.am      1 UNK        -0.4739 
      5 CA        -80.4079   27.9966  -73.6073 C.3       1 UNK         0.0864 
      6 C6        -81.0605   27.3689  -72.3480 C.3       11 UNK        -0.0881 
      7 S7        -81.8117   28.6699  -71.3036 S.3       11 UNK        -0.2682 
      8 C8        -80.7639   28.6965  -69.8064 C.3       11 UNK         0.0289 
      9 C9        -79.2741   28.5645  -70.1002 C.ar      11 UNK        -0.0687 
     10 C10       -78.5774   27.4397  -69.6474 C.ar      11 UNK        -0.0823 
     11 C11       -77.2219   27.2729  -69.9421 C.ar      11 UNK        -0.0830 
     12 C12       -76.5601   28.2554  -70.6846 C.ar      11 UNK        -0.1021 
     13 C13       -77.2476   29.3740  -71.1593 C.ar      11 UNK        -0.0753 
     14 C14       -78.6004   29.5375  -70.8459 C.ar      11 UNK        -0.0933 
     15 C15       -76.5286   30.3758  -72.0452 C.3       11 UNK         0.0166 
     16 S16       -76.6717   29.8969  -73.7952 S.3       11 UNK        -0.2615 
     17 C17       -75.5089   31.0721  -74.5688 C.3       11 UNK        -0.0865 
     18 CA        -74.4615   30.3909  -75.4991 C.3       10 UNK         0.0862 
     19 C         -73.5519   31.4483  -76.1913 C.2       10 UNK         0.5551 
     20 N         -74.1202   32.2502  -77.0827 N.am      10 UNK        -0.7319 
     21 O         -72.3569   31.5726  -75.9316 O.2       10 UNK        -0.5018 
     22 N         -73.7198   29.2872  -74.8651 N.am      10 UNK        -0.4509 
     23 C         -72.9521   29.3449  -73.7676 C.2       10 UNK         0.4899 
     24 O         -72.8228   30.3390  -73.0525 O.2       10 UNK        -0.4839 
     25 CA        -72.1860   28.0623  -73.4088 C.3       9 UNK         0.0222 
     26 CB        -73.0807   27.1058  -72.6091 C.3       9 UNK        -0.1966 
     27 N         -71.6923   27.3835  -74.6087 N.am      9 UNK        -0.4218 
     28 C         -70.5227   27.6657  -75.2034 C.2       9 UNK         0.5020 
     29 O         -69.6981   28.4613  -74.7509 O.2       9 UNK        -0.5274 
     30 CA        -70.2043   26.9406  -76.5253 C.3       8 UNK         0.0270 
     31 CB        -69.4155   25.6488  -76.2543 C.3       8 UNK        -0.1976 
     32 N         -71.3978   26.6215  -77.3098 N.am      8 UNK        -0.4313 
     33 C         -72.1952   27.5253  -77.8960 C.2       8 UNK         0.5041 
     34 O         -71.9456   28.7288  -77.9426 O.2       8 UNK        -0.5577 
     35 CA        -73.5078   27.0107  -78.5154 C.3       7 UNK         0.0284 
     36 CB        -73.3957   26.9515  -80.0473 C.3       7 UNK        -0.1958 
     37 N         -73.9459   25.7020  -78.0132 N.am      7 UNK        -0.4454 
     38 C         -74.2863   25.4310  -76.7460 C.2       7 UNK         0.5089 
     39 O         -74.2316   26.2637  -75.8366 O.2       7 UNK        -0.5125 
     40 CA        -74.7184   23.9786  -76.4784 C.3       6 UNK         0.0408 
     41 CB        -73.5013   23.0337  -76.3909 C.3       6 UNK        -0.1791 
     42 N         -75.6157   23.8562  -75.3214 N.am      6 UNK        -0.4762 
     43 C         -75.3139   23.8946  -74.0136 C.2       6 UNK         0.5007 
     44 O         -74.1628   23.9307  -73.5786 O.2       6 UNK        -0.5032 
     45 CA        -76.4921   23.8741  -73.0105 C.3       5 UNK         0.0783 
     46 C46       -76.5905   25.1952  -72.2071 C.3       11 UNK        -0.0857 
     47 S47       -75.4608   25.2453  -70.7720 S.3       11 UNK        -0.2512 
     48 C48       -76.4969   26.0121  -69.4782 C.3       11 UNK         0.0225 
     49 N         -77.7852   23.5676  -73.6340 N.am      5 UNK        -0.4615 
     50 C         -78.2441   22.3335  -73.8778 C.2       4 UNK         0.5053 
     51 O         -77.5793   21.3125  -73.7038 O.2       4 UNK        -0.5105 
     52 CA        -79.6902   22.2126  -74.3815 C.3       4 UNK         0.0263 
     53 CB        -80.6737   22.3129  -73.2032 C.3       4 UNK        -0.1981 
     54 N         -80.0075   23.2537  -75.3603 N.am      4 UNK        -0.4224 
     55 C         -80.2970   23.0328  -76.6511 C.2       3 UNK         0.4895 
     56 O         -80.3864   21.9124  -77.1548 O.2       3 UNK        -0.5091 
     57 CA        -80.5220   24.2691  -77.5458 C.3       3 UNK         0.0250 
     58 CB        -82.0216   24.5912  -77.6488 C.3       3 UNK        -0.1996 
     59 N         -79.8064   25.4632  -77.0887 N.am      3 UNK        -0.4254 
     60 C         -78.4734   25.5700  -77.0002 C.2       2 UNK         0.5004 
     61 O         -77.6970   24.7065  -77.4024 O.2       2 UNK        -0.5226 
     62 CA        -77.9035   26.8211  -76.3088 C.3       2 UNK         0.0269 
     63 CB        -77.3794   27.8113  -77.3591 C.3       2 UNK        -0.1926 
     64 N         -78.8419   27.5209  -75.4256 N.am      2 UNK        -0.4687 
     65 C         -79.4890   27.0160  -74.3666 C.2       1 UNK         0.5165 
     66 O         -79.4149   25.8310  -74.0299 O.2       1 UNK        -0.5079 
     67 H67       -82.6412   31.0736  -76.0016 H         1 UNK         0.0900 
     68 H68       -82.2627   29.8819  -77.2484 H         1 UNK         0.0900 
     69 H69       -83.3489   29.4590  -75.9227 H         1 UNK         0.0900 
     70 H70       -82.3523   28.1698  -74.3995 H         1 UNK         0.2959 
     71 H71       -79.7535   28.8053  -73.2751 H         1 UNK         0.1079 
     72 H72       -80.3367   26.7978  -71.7657 H         1 UNK         0.0837 
     73 H73       -81.8346   26.6538  -72.6318 H         1 UNK         0.0837 
     74 H74       -81.0965   27.8970  -69.1426 H         1 UNK         0.0685 
     75 H75       -80.9408   29.6293  -69.2694 H         1 UNK         0.0685 
     76 H76       -79.0987   26.6803  -69.0804 H         1 UNK         0.1434 
     77 H77       -75.5156   28.1300  -70.9303 H         1 UNK         0.1329 
     78 H78       -79.1398   30.3988  -71.2159 H         1 UNK         0.1335 
     79 H79       -75.4752   30.4293  -71.7649 H         1 UNK         0.0680 
     80 H80       -76.9425   31.3755  -71.9050 H         1 UNK         0.0680 
     81 H81       -75.0046   31.6570  -73.7980 H         1 UNK         0.1032 
     82 H82       -76.1080   31.7886  -75.1330 H         1 UNK         0.1032 
     83 H83       -75.0077   29.9070  -76.3085 H         1 UNK         0.0461 
     84 H84       -73.5537   32.9465  -77.5416 H         1 UNK         0.3453 
     85 H85       -75.0963   32.1661  -77.3192 H         1 UNK         0.3453 
     86 H86       -73.7738   28.4014  -75.3504 H         1 UNK         0.2984 
     87 H87       -71.3404   28.3355  -72.7739 H         1 UNK         0.0554 
     88 H88       -72.5644   26.1747  -72.3745 H         1 UNK         0.0847 
     89 H89       -73.9922   26.8511  -73.1514 H         1 UNK         0.0847 
     90 H90       -73.3774   27.5568  -71.6625 H         1 UNK         0.0847 
     91 H91       -72.3354   26.7409  -75.0577 H         1 UNK         0.3141 
     92 H92       -69.5774   27.6060  -77.1231 H         1 UNK         0.0743 
     93 H93       -69.9979   24.9325  -75.6730 H         1 UNK         0.0784 
     94 H94       -69.1147   25.1641  -77.1833 H         1 UNK         0.0784 
     95 H95       -68.5047   25.8600  -75.6919 H         1 UNK         0.0784 
     96 H96       -71.6725   25.6514  -77.3506 H         1 UNK         0.3213 
     97 H97       -74.2803   27.7380  -78.2581 H         1 UNK         0.0855 
     98 H98       -72.6523   26.2218  -80.3705 H         1 UNK         0.0814 
     99 H99       -73.0998   27.9195  -80.4548 H         1 UNK         0.0814 
    100 H100      -74.3490   26.6887  -80.5063 H         1 UNK         0.0814 
    101 H101      -74.0202   24.9629  -78.6982 H         1 UNK         0.3105 
    102 H102      -75.3117   23.6546  -77.3342 H         1 UNK         0.0547 
    103 H103      -73.8030   22.0202  -76.1271 H         1 UNK         0.0837 
    104 H104      -72.7706   23.3694  -75.6545 H         1 UNK         0.0837 
    105 H105      -72.9830   22.9751  -77.3484 H         1 UNK         0.0837 
    106 H106      -76.5972   23.8347  -75.5657 H         1 UNK         0.3020 
    107 H107      -76.2736   23.0678  -72.3059 H         1 UNK         0.1245 
    108 H108      -77.6061   25.3137  -71.8256 H         1 UNK         0.0781 
    109 H109      -76.4149   26.0674  -72.8407 H         1 UNK         0.0781 
    110 H110      -75.8675   26.2606  -68.6229 H         1 UNK         0.0836 
    111 H111      -77.2114   25.2650  -69.1290 H         1 UNK         0.0836 
    112 H112      -78.4020   24.3641  -73.7778 H         1 UNK         0.3022 
    113 H113      -79.7971   21.2211  -74.8267 H         1 UNK         0.0747 
    114 H114      -81.7009   22.1585  -73.5337 H         1 UNK         0.0793 
    115 H115      -80.4588   21.5553  -72.4483 H         1 UNK         0.0793 
    116 H116      -80.6233   23.2869  -72.7141 H         1 UNK         0.0793 
    117 H117      -79.9475   24.2130  -75.0347 H         1 UNK         0.3047 
    118 H118      -80.1521   24.0217  -78.5432 H         1 UNK         0.0822 
    119 H119      -82.2057   25.4108  -78.3437 H         1 UNK         0.0807 
    120 H120      -82.4434   24.8677  -76.6816 H         1 UNK         0.0807 
    121 H121      -82.5814   23.7286  -78.0135 H         1 UNK         0.0807 
    122 H122      -80.3659   26.2286  -76.7425 H         1 UNK         0.2946 
    123 H123      -77.0632   26.4950  -75.6922 H         1 UNK         0.1144 
    124 H124      -76.8756   28.6537  -76.8877 H         1 UNK         0.0793 
    125 H125      -78.1861   28.2069  -77.9773 H         1 UNK         0.0793 
    126 H126      -76.6614   27.3324  -78.0257 H         1 UNK         0.0793 
    127 H127      -79.0052   28.5045  -75.6254 H         1 UNK         0.2896 
@<TRIPOS>BOND
     1    1    2 1    
     2    1   67 1    
     3    1   68 1    
     4    1   69 1    
     5    2    3 2    
     6    2    4 am   BACKBONE|DICT|INTERRES
     7    4    5 1    
     8    4   70 1    
     9    5    6 1    
    10    5   65 1    
    11    5   71 1    
    12    6    7 1    
    13    6   72 1    
    14    6   73 1    
    15    7    8 1    
    16    8    9 1    
    17    8   74 1    
    18    8   75 1    
    19    9   10 ar   
    20    9   14 ar   
    21   10   11 ar   
    22   10   76 1    
    23   11   12 ar   
    24   11   48 1    
    25   12   13 ar   
    26   12   77 1    
    27   13   14 ar   
    28   13   15 1    
    29   14   78 1    
    30   15   16 1    
    31   15   79 1    
    32   15   80 1    
    33   16   17 1    
    34   17   18 1    
    35   17   81 1    
    36   17   82 1    
    37   18   19 1    
    38   18   22 1    
    39   18   83 1    
    40   19   20 am   BACKBONE|DICT|INTERRES
    41   19   21 2    
    42   20   84 1    
    43   20   85 1    
    44   22   23 am   BACKBONE|DICT|INTERRES
    45   22   86 1    
    46   23   24 2    
    47   23   25 1    
    48   25   26 1    
    49   25   27 1    
    50   25   87 1    
    51   26   88 1    
    52   26   89 1    
    53   26   90 1    
    54   27   28 am   BACKBONE|DICT|INTERRES
    55   27   91 1    
    56   28   29 2    
    57   28   30 1    
    58   30   31 1    
    59   30   32 1    
    60   30   92 1    
    61   31   93 1    
    62   31   94 1    
    63   31   95 1    
    64   32   33 am   BACKBONE|DICT|INTERRES
    65   32   96 1    
    66   33   34 2    
    67   33   35 1    
    68   35   36 1    
    69   35   37 1    
    70   35   97 1    
    71   36   98 1    
    72   36   99 1    
    73   36  100 1    
    74   37   38 am   BACKBONE|DICT|INTERRES
    75   37  101 1    
    76   38   39 2    
    77   38   40 1    
    78   40   41 1    
    79   40   42 1    
    80   40  102 1    
    81   41  103 1    
    82   41  104 1    
    83   41  105 1    
    84   42   43 am   BACKBONE|DICT|INTERRES
    85   42  106 1    
    86   43   44 2    
    87   43   45 1    
    88   45   46 1    
    89   45   49 1    
    90   45  107 1    
    91   46   47 1    
    92   46  108 1    
    93   46  109 1    
    94   47   48 1    
    95   48  110 1    
    96   48  111 1    
    97   49   50 am   BACKBONE|DICT|INTERRES
    98   49  112 1    
    99   50   51 2    
   100   50   52 1    
   101   52   53 1    
   102   52   54 1    
   103   52  113 1    
   104   53  114 1    
   105   53  115 1    
   106   53  116 1    
   107   54   55 am   BACKBONE|DICT|INTERRES
   108   54  117 1    
   109   55   56 2    
   110   55   57 1    
   111   57   58 1    
   112   57   59 1    
   113   57  118 1    
   114   58  119 1    
   115   58  120 1    
   116   58  121 1    
   117   59   60 am   BACKBONE|DICT|INTERRES
   118   59  122 1    
   119   60   61 2    
   120   60   62 1    
   121   62   63 1    
   122   62   64 1    
   123   62  123 1    
   124   63  124 1    
   125   63  125 1    
   126   63  126 1    
   127   64   65 am   BACKBONE|DICT|INTERRES
   128   64  127 1    
   129   65   66 2    
@<TRIPOS>SUBSTRUCTURE
     1 UNK         1 GROUP             0       ****    0 ROOT    
