@<TRIPOS>MOLECULE
3R135
127   129    1
SMALL
USER_CHARGES


@<TRIPOS>ATOM
      1 CA        -79.1973   28.5329  -77.0968 C.3       0 UNK        -0.1998 
      2 C         -79.6014   27.8881  -75.7807 C.2       0 UNK         0.4909 
      3 O         -79.2290   26.7422  -75.5260 O.2       0 UNK        -0.5240 
      4 N         -80.3577   28.6131  -74.9435 N.am      1 UNK        -0.4739 
      5 CA        -80.8135   28.1659  -73.6235 C.3       1 UNK         0.0864 
      6 C6        -81.4863   29.3133  -72.8260 C.3       11 UNK        -0.0881 
      7 S7        -81.6106   28.9455  -71.0396 S.3       11 UNK        -0.2682 
      8 C8        -80.1245   29.7641  -70.3723 C.3       11 UNK         0.0289 
      9 C9        -78.8532   29.2063  -70.9940 C.ar      11 UNK        -0.0687 
     10 C10       -78.4038   27.9276  -70.6504 C.ar      11 UNK        -0.0823 
     11 C11       -77.2755   27.3851  -71.2709 C.ar      11 UNK        -0.0830 
     12 C12       -76.5878   28.1412  -72.2240 C.ar      11 UNK        -0.1021 
     13 C13       -77.0231   29.4239  -72.5794 C.ar      11 UNK        -0.0753 
     14 C14       -78.1554   29.9493  -71.9514 C.ar      11 UNK        -0.0933 
     15 C15       -76.3359   30.2522  -73.6672 C.3       11 UNK         0.0166 
     16 S16       -74.6115   29.7799  -74.0334 S.3       11 UNK        -0.2615 
     17 C17       -73.7608   30.2845  -72.4965 C.3       11 UNK        -0.0865 
     18 CA        -72.6332   31.3130  -72.7670 C.3       10 UNK         0.0862 
     19 C         -72.0208   31.8462  -71.4395 C.2       10 UNK         0.5551 
     20 N         -70.7294   31.6737  -71.1840 N.am      10 UNK        -0.7319 
     21 O         -72.7315   32.4370  -70.6301 O.2       10 UNK        -0.5018 
     22 N         -71.6498   30.7709  -73.7156 N.am      10 UNK        -0.4509 
     23 C         -70.8907   31.4811  -74.5524 C.2       10 UNK         0.4899 
     24 O         -70.8928   32.7114  -74.6003 O.2       10 UNK        -0.4839 
     25 CA        -69.9870   30.6967  -75.5228 C.3       9 UNK         0.0222 
     26 CB        -68.5746   30.5134  -74.9338 C.3       9 UNK        -0.1966 
     27 N         -70.5420   29.4188  -76.0022 N.am      9 UNK        -0.4218 
     28 C         -70.7717   28.2801  -75.3335 C.2       9 UNK         0.5020 
     29 O         -70.6016   28.1496  -74.1195 O.2       9 UNK        -0.5274 
     30 CA        -71.3105   27.1015  -76.1669 C.3       8 UNK         0.0270 
     31 CB        -71.0685   25.7450  -75.4799 C.3       8 UNK        -0.1976 
     32 N         -72.7385   27.2294  -76.4651 N.am      8 UNK        -0.4313 
     33 C         -73.2864   28.1258  -77.2996 C.2       8 UNK         0.5041 
     34 O         -72.6305   28.9798  -77.9021 O.2       8 UNK        -0.5577 
     35 CA        -74.8129   28.0255  -77.5200 C.3       7 UNK         0.0284 
     36 CB        -75.2921   28.8129  -78.7582 C.3       7 UNK        -0.1958 
     37 N         -75.2907   26.6368  -77.5695 N.am      7 UNK        -0.4454 
     38 C         -74.8782   25.6655  -78.4000 C.2       7 UNK         0.5089 
     39 O         -74.1041   25.8510  -79.3403 O.2       7 UNK        -0.5125 
     40 CA        -75.4082   24.2405  -78.1327 C.3       6 UNK         0.0408 
     41 CB        -74.3438   23.1654  -78.4364 C.3       6 UNK        -0.1791 
     42 N         -75.9733   24.0223  -76.7924 N.am      6 UNK        -0.4762 
     43 C         -75.3556   24.1500  -75.6038 C.2       6 UNK         0.5007 
     44 O         -74.2130   24.5921  -75.4775 O.2       6 UNK        -0.5032 
     45 CA        -76.1528   23.7645  -74.3356 C.3       5 UNK         0.0783 
     46 C46       -76.5828   25.0492  -73.5875 C.3       11 UNK        -0.0857 
     47 S47       -77.5144   24.7324  -72.0491 S.3       11 UNK        -0.2512 
     48 C48       -76.8058   25.9789  -70.9225 C.3       11 UNK         0.0225 
     49 N         -77.2967   22.8972  -74.6318 N.am      5 UNK        -0.4615 
     50 C         -77.2261   21.6233  -75.0430 C.2       4 UNK         0.5053 
     51 O         -76.1751   20.9869  -75.1168 O.2       4 UNK        -0.5105 
     52 CA        -78.5470   20.9546  -75.4750 C.3       4 UNK         0.0263 
     53 CB        -79.0704   20.0339  -74.3612 C.3       4 UNK        -0.1981 
     54 N         -79.6000   21.9108  -75.8355 N.am      4 UNK        -0.4224 
     55 C         -79.5425   22.8119  -76.8258 C.2       3 UNK         0.4895 
     56 O         -78.6138   22.8804  -77.6304 O.2       3 UNK        -0.5091 
     57 CA        -80.6512   23.8751  -76.8724 C.3       3 UNK         0.0250 
     58 CB        -81.8644   23.4006  -77.6955 C.3       3 UNK        -0.1996 
     59 N         -81.0319   24.3768  -75.5420 N.am      3 UNK        -0.4254 
     60 C         -81.7227   23.7588  -74.5695 C.2       2 UNK         0.5004 
     61 O         -82.1592   22.6124  -74.6780 O.2       2 UNK        -0.5226 
     62 CA        -81.9069   24.4944  -73.2264 C.3       2 UNK         0.0269 
     63 CB        -81.3818   23.6378  -72.0603 C.3       2 UNK        -0.1926 
     64 N         -81.2473   25.8009  -73.1735 N.am      2 UNK        -0.4687 
     65 C         -81.7177   26.9226  -73.7334 C.2       1 UNK         0.5165 
     66 O         -82.7885   26.9932  -74.3403 O.2       1 UNK        -0.5079 
     67 H67       -78.1184   28.6806  -77.1201 H         1 UNK         0.0900 
     68 H68       -79.4724   27.8882  -77.9310 H         1 UNK         0.0900 
     69 H69       -79.6772   29.5005  -77.2420 H         1 UNK         0.0900 
     70 H70       -80.6618   29.5341  -75.2243 H         1 UNK         0.2959 
     71 H71       -79.9077   27.8696  -73.0927 H         1 UNK         0.1079 
     72 H72       -82.4852   29.5244  -73.2131 H         1 UNK         0.0837 
     73 H73       -80.9242   30.2402  -72.9477 H         1 UNK         0.0837 
     74 H74       -80.0939   29.6200  -69.2914 H         1 UNK         0.0685 
     75 H75       -80.2002   30.8402  -70.5366 H         1 UNK         0.0685 
     76 H76       -78.9512   27.3458  -69.9211 H         1 UNK         0.1434 
     77 H77       -75.7173   27.7176  -72.6994 H         1 UNK         0.1329 
     78 H78       -78.5116   30.9319  -72.2296 H         1 UNK         0.1335 
     79 H79       -76.3557   31.3101  -73.3999 H         1 UNK         0.0680 
     80 H80       -76.9170   30.1542  -74.5851 H         1 UNK         0.0680 
     81 H81       -73.3565   29.3908  -72.0178 H         1 UNK         0.1032 
     82 H82       -74.4926   30.6941  -71.7973 H         1 UNK         0.1032 
     83 H83       -73.0985   32.1804  -73.2394 H         1 UNK         0.0461 
     84 H84       -70.3416   32.0273  -70.3236 H         1 UNK         0.3453 
     85 H85       -70.1425   31.1913  -71.8454 H         1 UNK         0.3453 
     86 H86       -71.5305   29.7622  -73.7199 H         1 UNK         0.2984 
     87 H87       -69.8881   31.3168  -76.4152 H         1 UNK         0.0554 
     88 H88       -68.1331   31.4770  -74.6758 H         1 UNK         0.0847 
     89 H89       -67.9061   30.0330  -75.6483 H         1 UNK         0.0847 
     90 H90       -68.5842   29.9100  -74.0257 H         1 UNK         0.0847 
     91 H91       -70.8886   29.4342  -76.9579 H         1 UNK         0.3141 
     92 H92       -70.7655   27.0912  -77.1133 H         1 UNK         0.0743 
     93 H93       -70.0123   25.6081  -75.2441 H         1 UNK         0.0784 
     94 H94       -71.3676   24.9166  -76.1227 H         1 UNK         0.0784 
     95 H95       -71.6265   25.6593  -74.5463 H         1 UNK         0.0784 
     96 H96       -73.3437   26.5396  -76.0340 H         1 UNK         0.3213 
     97 H97       -75.2779   28.4781  -76.6436 H         1 UNK         0.0855 
     98 H98       -74.8089   28.4633  -79.6710 H         1 UNK         0.0814 
     99 H99       -75.0632   29.8745  -78.6567 H         1 UNK         0.0814 
    100 H100      -76.3693   28.7258  -78.8959 H         1 UNK         0.0814 
    101 H101      -75.9340   26.3643  -76.8400 H         1 UNK         0.3105 
    102 H102      -76.2335   24.0935  -78.8307 H         1 UNK         0.0547 
    103 H103      -74.7334   22.1622  -78.2636 H         1 UNK         0.0837 
    104 H104      -73.4552   23.2918  -77.8170 H         1 UNK         0.0837 
    105 H105      -74.0231   23.2102  -79.4778 H         1 UNK         0.0837 
    106 H106      -76.9232   23.6635  -76.7982 H         1 UNK         0.3020 
    107 H107      -75.4693   23.2047  -73.6930 H         1 UNK         0.1245 
    108 H108      -77.1936   25.6904  -74.2249 H         1 UNK         0.0781 
    109 H109      -75.6889   25.6223  -73.3413 H         1 UNK         0.0781 
    110 H110      -75.7163   25.9237  -70.9429 H         1 UNK         0.0836 
    111 H111      -77.0992   25.7326  -69.9009 H         1 UNK         0.0836 
    112 H112      -78.2054   23.3298  -74.5657 H         1 UNK         0.3022 
    113 H113      -78.3326   20.3479  -76.3572 H         1 UNK         0.0747 
    114 H114      -79.9612   19.4920  -74.6798 H         1 UNK         0.0793 
    115 H115      -78.3219   19.2900  -74.0843 H         1 UNK         0.0793 
    116 H116      -79.3229   20.5947  -73.4601 H         1 UNK         0.0793 
    117 H117      -80.4320   21.9265  -75.2520 H         1 UNK         0.3047 
    118 H118      -80.2278   24.7376  -77.3903 H         1 UNK         0.0822 
    119 H119      -82.6334   24.1713  -77.7476 H         1 UNK         0.0807 
    120 H120      -82.3184   22.5000  -77.2816 H         1 UNK         0.0807 
    121 H121      -81.5682   23.1682  -78.7192 H         1 UNK         0.0807 
    122 H122      -80.6424   25.2891  -75.3231 H         1 UNK         0.2946 
    123 H123      -82.9810   24.6392  -73.0894 H         1 UNK         0.1144 
    124 H124      -81.5266   24.1380  -71.1025 H         1 UNK         0.0793 
    125 H125      -80.3191   23.4175  -72.1669 H         1 UNK         0.0793 
    126 H126      -81.9072   22.6833  -72.0049 H         1 UNK         0.0793 
    127 H127      -80.3441   25.8263  -72.7201 H         1 UNK         0.2896 
@<TRIPOS>BOND
     1    1    2 1    
     2    1   67 1    
     3    1   68 1    
     4    1   69 1    
     5    2    3 2    
     6    2    4 am   BACKBONE|DICT|INTERRES
     7    4    5 1    
     8    4   70 1    
     9    5    6 1    
    10    5   65 1    
    11    5   71 1    
    12    6    7 1    
    13    6   72 1    
    14    6   73 1    
    15    7    8 1    
    16    8    9 1    
    17    8   74 1    
    18    8   75 1    
    19    9   10 ar   
    20    9   14 ar   
    21   10   11 ar   
    22   10   76 1    
    23   11   12 ar   
    24   11   48 1    
    25   12   13 ar   
    26   12   77 1    
    27   13   14 ar   
    28   13   15 1    
    29   14   78 1    
    30   15   16 1    
    31   15   79 1    
    32   15   80 1    
    33   16   17 1    
    34   17   18 1    
    35   17   81 1    
    36   17   82 1    
    37   18   19 1    
    38   18   22 1    
    39   18   83 1    
    40   19   20 am   BACKBONE|DICT|INTERRES
    41   19   21 2    
    42   20   84 1    
    43   20   85 1    
    44   22   23 am   BACKBONE|DICT|INTERRES
    45   22   86 1    
    46   23   24 2    
    47   23   25 1    
    48   25   26 1    
    49   25   27 1    
    50   25   87 1    
    51   26   88 1    
    52   26   89 1    
    53   26   90 1    
    54   27   28 am   BACKBONE|DICT|INTERRES
    55   27   91 1    
    56   28   29 2    
    57   28   30 1    
    58   30   31 1    
    59   30   32 1    
    60   30   92 1    
    61   31   93 1    
    62   31   94 1    
    63   31   95 1    
    64   32   33 am   BACKBONE|DICT|INTERRES
    65   32   96 1    
    66   33   34 2    
    67   33   35 1    
    68   35   36 1    
    69   35   37 1    
    70   35   97 1    
    71   36   98 1    
    72   36   99 1    
    73   36  100 1    
    74   37   38 am   BACKBONE|DICT|INTERRES
    75   37  101 1    
    76   38   39 2    
    77   38   40 1    
    78   40   41 1    
    79   40   42 1    
    80   40  102 1    
    81   41  103 1    
    82   41  104 1    
    83   41  105 1    
    84   42   43 am   BACKBONE|DICT|INTERRES
    85   42  106 1    
    86   43   44 2    
    87   43   45 1    
    88   45   46 1    
    89   45   49 1    
    90   45  107 1    
    91   46   47 1    
    92   46  108 1    
    93   46  109 1    
    94   47   48 1    
    95   48  110 1    
    96   48  111 1    
    97   49   50 am   BACKBONE|DICT|INTERRES
    98   49  112 1    
    99   50   51 2    
   100   50   52 1    
   101   52   53 1    
   102   52   54 1    
   103   52  113 1    
   104   53  114 1    
   105   53  115 1    
   106   53  116 1    
   107   54   55 am   BACKBONE|DICT|INTERRES
   108   54  117 1    
   109   55   56 2    
   110   55   57 1    
   111   57   58 1    
   112   57   59 1    
   113   57  118 1    
   114   58  119 1    
   115   58  120 1    
   116   58  121 1    
   117   59   60 am   BACKBONE|DICT|INTERRES
   118   59  122 1    
   119   60   61 2    
   120   60   62 1    
   121   62   63 1    
   122   62   64 1    
   123   62  123 1    
   124   63  124 1    
   125   63  125 1    
   126   63  126 1    
   127   64   65 am   BACKBONE|DICT|INTERRES
   128   64  127 1    
   129   65   66 2    
@<TRIPOS>SUBSTRUCTURE
     1 UNK         1 GROUP             0       ****    0 ROOT    
