@<TRIPOS>MOLECULE
3R135
127   129    1
SMALL
USER_CHARGES


@<TRIPOS>ATOM
      1 CA        -82.3288   22.5253  -73.3194 C.3       0 UNK        -0.1998 
      2 C         -81.9946   23.9735  -73.6412 C.2       0 UNK         0.4909 
      3 O         -81.8314   24.3223  -74.8114 O.2       0 UNK        -0.5240 
      4 N         -81.8985   24.8078  -72.5974 N.am      1 UNK        -0.4739 
      5 CA        -81.6975   26.2622  -72.6472 C.3       1 UNK         0.0864 
      6 C6        -81.7051   26.8536  -71.2153 C.3       11 UNK        -0.0881 
      7 S7        -81.9699   28.6627  -71.1687 S.3       11 UNK        -0.2682 
      8 C8        -80.7409   29.2127  -69.9396 C.3       11 UNK         0.0289 
      9 C9        -79.3067   28.9996  -70.4053 C.ar      11 UNK        -0.0687 
     10 C10       -78.5838   27.8902  -69.9554 C.ar      11 UNK        -0.0823 
     11 C11       -77.2708   27.6806  -70.3790 C.ar      11 UNK        -0.0830 
     12 C12       -76.6612   28.6231  -71.2100 C.ar      11 UNK        -0.1021 
     13 C13       -77.3807   29.7149  -71.7035 C.ar      11 UNK        -0.0753 
     14 C14       -78.7023   29.9062  -71.2844 C.ar      11 UNK        -0.0933 
     15 C15       -76.7272   30.6642  -72.7023 C.3       11 UNK         0.0166 
     16 S16       -76.0256   29.7551  -74.1221 S.3       11 UNK        -0.2615 
     17 C17       -75.2900   31.0802  -75.1464 C.3       11 UNK        -0.0865 
     18 CA        -73.8755   31.5811  -74.7108 C.3       10 UNK         0.0862 
     19 C         -73.9325   32.7150  -73.6534 C.2       10 UNK         0.5551 
     20 N         -74.4831   33.8677  -74.0083 N.am      10 UNK        -0.7319 
     21 O         -73.4880   32.5626  -72.5160 O.2       10 UNK        -0.5018 
     22 N         -72.9816   30.5070  -74.2661 N.am      10 UNK        -0.4509 
     23 C         -72.4379   29.5525  -75.0236 C.2       10 UNK         0.4899 
     24 O         -72.5520   29.4940  -76.2496 O.2       10 UNK        -0.4839 
     25 CA        -71.6435   28.4743  -74.2710 C.3       9 UNK         0.0222 
     26 CB        -72.4285   27.9422  -73.0486 C.3       9 UNK        -0.1966 
     27 N         -71.3142   27.3829  -75.1896 N.am      9 UNK        -0.4218 
     28 C         -70.3973   26.4319  -74.9706 C.2       9 UNK         0.5020 
     29 O         -69.6912   26.3970  -73.9605 O.2       9 UNK        -0.5274 
     30 CA        -70.2338   25.3384  -76.0430 C.3       8 UNK         0.0270 
     31 CB        -69.6079   24.0429  -75.4836 C.3       8 UNK        -0.1976 
     32 N         -71.5025   25.0290  -76.7081 N.am      8 UNK        -0.4313 
     33 C         -71.6092   24.5792  -77.9685 C.2       8 UNK         0.5041 
     34 O         -70.6403   24.3802  -78.7033 O.2       8 UNK        -0.5577 
     35 CA        -73.0226   24.3012  -78.5229 C.3       7 UNK         0.0284 
     36 CB        -73.3660   22.8083  -78.3949 C.3       7 UNK        -0.1958 
     37 N         -74.0707   25.0859  -77.8718 N.am      7 UNK        -0.4454 
     38 C         -74.1571   26.4217  -77.8978 C.2       7 UNK         0.5089 
     39 O         -73.4556   27.1324  -78.6174 O.2       7 UNK        -0.5125 
     40 CA        -75.1539   27.0857  -76.9292 C.3       6 UNK         0.0408 
     41 CB        -76.2904   27.7695  -77.7004 C.3       6 UNK        -0.1791 
     42 N         -75.7161   26.2108  -75.8905 N.am      6 UNK        -0.4762 
     43 C         -75.0178   25.5652  -74.9421 C.2       6 UNK         0.5007 
     44 O         -73.7882   25.5162  -74.9133 O.2       6 UNK        -0.5032 
     45 CA        -75.8288   24.8432  -73.8498 C.3       5 UNK         0.0783 
     46 C46       -76.1255   25.8370  -72.7080 C.3       11 UNK        -0.0857 
     47 S47       -76.8300   25.0766  -71.2093 S.3       11 UNK        -0.2512 
     48 C48       -76.5304   26.4076  -69.9929 C.3       11 UNK         0.0225 
     49 N         -77.0458   24.2307  -74.3942 N.am      5 UNK        -0.4615 
     50 C         -77.0341   23.1594  -75.2018 C.2       4 UNK         0.5053 
     51 O         -76.0073   22.5697  -75.5392 O.2       4 UNK        -0.5105 
     52 CA        -78.3881   22.6808  -75.7481 C.3       4 UNK         0.0263 
     53 CB        -79.1584   21.9064  -74.6699 C.3       4 UNK        -0.1981 
     54 N         -79.2019   23.7863  -76.2628 N.am      4 UNK        -0.4224 
     55 C         -78.8890   24.4857  -77.3667 C.2       3 UNK         0.4895 
     56 O         -77.9328   24.2270  -78.0971 O.2       3 UNK        -0.5091 
     57 CA        -79.7354   25.7246  -77.6661 C.3       3 UNK         0.0250 
     58 CB        -81.1528   25.3626  -78.1406 C.3       3 UNK        -0.1996 
     59 N         -79.7817   26.5442  -76.4613 N.am      3 UNK        -0.4254 
     60 C         -79.6720   27.8729  -76.4001 C.2       2 UNK         0.5004 
     61 O         -79.6380   28.6000  -77.3939 O.2       2 UNK        -0.5226 
     62 CA        -79.5775   28.4821  -74.9847 C.3       2 UNK         0.0269 
     63 CB        -79.7563   30.0116  -74.9942 C.3       2 UNK        -0.1926 
     64 N         -80.5492   27.8954  -74.0585 N.am      2 UNK        -0.4687 
     65 C         -80.4591   26.6952  -73.4692 C.2       1 UNK         0.5165 
     66 O         -79.4916   25.9389  -73.6149 O.2       1 UNK        -0.5079 
     67 H67       -83.2794   22.4620  -72.7905 H         1 UNK         0.0900 
     68 H68       -81.5556   22.0791  -72.6947 H         1 UNK         0.0900 
     69 H69       -82.4138   21.9361  -74.2321 H         1 UNK         0.0900 
     70 H70       -82.0066   24.4235  -71.6700 H         1 UNK         0.2959 
     71 H71       -82.5734   26.6495  -73.1724 H         1 UNK         0.1079 
     72 H72       -82.5198   26.4127  -70.6385 H         1 UNK         0.0837 
     73 H73       -80.7944   26.5724  -70.6897 H         1 UNK         0.0837 
     74 H74       -80.9202   28.6941  -68.9964 H         1 UNK         0.0685 
     75 H75       -80.9002   30.2726  -69.7363 H         1 UNK         0.0685 
     76 H76       -79.0502   27.1721  -69.2952 H         1 UNK         0.1434 
     77 H77       -75.6401   28.4736  -71.5317 H         1 UNK         0.1329 
     78 H78       -79.2673   30.7539  -71.6462 H         1 UNK         0.1335 
     79 H79       -75.9378   31.2139  -72.1904 H         1 UNK         0.0680 
     80 H80       -77.4441   31.4006  -73.0681 H         1 UNK         0.0680 
     81 H81       -75.2082   30.6716  -76.1546 H         1 UNK         0.1032 
     82 H82       -76.0024   31.9019  -75.2368 H         1 UNK         0.1032 
     83 H83       -73.3995   32.0327  -75.5835 H         1 UNK         0.0461 
     84 H84       -74.8375   34.0157  -74.9403 H         1 UNK         0.3453 
     85 H85       -74.5284   34.6148  -73.3330 H         1 UNK         0.3453 
     86 H86       -72.8103   30.5144  -73.2694 H         1 UNK         0.2984 
     87 H87       -70.7115   28.9295  -73.9305 H         1 UNK         0.0554 
     88 H88       -71.9505   27.0727  -72.5983 H         1 UNK         0.0847 
     89 H89       -73.4429   27.6569  -73.3249 H         1 UNK         0.0847 
     90 H90       -72.5064   28.6965  -72.2654 H         1 UNK         0.0847 
     91 H91       -71.8138   27.4128  -76.0701 H         1 UNK         0.3141 
     92 H92       -69.5452   25.7561  -76.7804 H         1 UNK         0.0743 
     93 H93       -68.6351   24.2368  -75.0302 H         1 UNK         0.0784 
     94 H94       -69.4507   23.3034  -76.2689 H         1 UNK         0.0784 
     95 H95       -70.2428   23.5916  -74.7204 H         1 UNK         0.0784 
     96 H96       -72.3436   25.1623  -76.1479 H         1 UNK         0.3213 
     97 H97       -73.0169   24.5653  -79.5825 H         1 UNK         0.0855 
     98 H98       -73.4118   22.4930  -77.3514 H         1 UNK         0.0814 
     99 H99       -72.6155   22.1908  -78.8904 H         1 UNK         0.0814 
    100 H100      -74.3275   22.5809  -78.8557 H         1 UNK         0.0814 
    101 H101      -74.6975   24.5876  -77.2553 H         1 UNK         0.3105 
    102 H102      -74.6002   27.8660  -76.4070 H         1 UNK         0.0547 
    103 H103      -76.8815   28.4047  -77.0422 H         1 UNK         0.0837 
    104 H104      -75.8993   28.4142  -78.4888 H         1 UNK         0.0837 
    105 H105      -76.9528   27.0445  -78.1725 H         1 UNK         0.0837 
    106 H106      -76.7220   26.1514  -75.8499 H         1 UNK         0.3020 
    107 H107      -75.1938   24.0470  -73.4538 H         1 UNK         0.1245 
    108 H108      -76.8101   26.6129  -73.0566 H         1 UNK         0.0781 
    109 H109      -75.2056   26.3415  -72.4080 H         1 UNK         0.0781 
    110 H110      -76.8539   26.0693  -69.0074 H         1 UNK         0.0836 
    111 H111      -75.4590   26.5986  -69.9133 H         1 UNK         0.0836 
    112 H112      -77.9267   24.6562  -74.1227 H         1 UNK         0.3022 
    113 H113      -78.1905   21.9960  -76.5759 H         1 UNK         0.0747 
    114 H114      -80.1031   21.5250  -75.0563 H         1 UNK         0.0793 
    115 H115      -78.5820   21.0481  -74.3221 H         1 UNK         0.0793 
    116 H116      -79.3674   22.5293  -73.7999 H         1 UNK         0.0793 
    117 H117      -80.0387   24.0272  -75.7389 H         1 UNK         0.3047 
    118 H118      -79.2385   26.2772  -78.4664 H         1 UNK         0.0822 
    119 H119      -81.7244   26.2576  -78.3867 H         1 UNK         0.0807 
    120 H120      -81.7113   24.8096  -77.3858 H         1 UNK         0.0807 
    121 H121      -81.1157   24.7440  -79.0381 H         1 UNK         0.0807 
    122 H122      -79.7941   26.0465  -75.5769 H         1 UNK         0.2946 
    123 H123      -78.5752   28.2643  -74.6090 H         1 UNK         0.1144 
    124 H124      -79.6885   30.4269  -73.9901 H         1 UNK         0.0793 
    125 H125      -80.7201   30.3031  -75.4130 H         1 UNK         0.0793 
    126 H126      -78.9793   30.4909  -75.5915 H         1 UNK         0.0793 
    127 H127      -81.3762   28.4482  -73.8822 H         1 UNK         0.2896 
@<TRIPOS>BOND
     1    1    2 1    
     2    1   67 1    
     3    1   68 1    
     4    1   69 1    
     5    2    3 2    
     6    2    4 am   BACKBONE|DICT|INTERRES
     7    4    5 1    
     8    4   70 1    
     9    5    6 1    
    10    5   65 1    
    11    5   71 1    
    12    6    7 1    
    13    6   72 1    
    14    6   73 1    
    15    7    8 1    
    16    8    9 1    
    17    8   74 1    
    18    8   75 1    
    19    9   10 ar   
    20    9   14 ar   
    21   10   11 ar   
    22   10   76 1    
    23   11   12 ar   
    24   11   48 1    
    25   12   13 ar   
    26   12   77 1    
    27   13   14 ar   
    28   13   15 1    
    29   14   78 1    
    30   15   16 1    
    31   15   79 1    
    32   15   80 1    
    33   16   17 1    
    34   17   18 1    
    35   17   81 1    
    36   17   82 1    
    37   18   19 1    
    38   18   22 1    
    39   18   83 1    
    40   19   20 am   BACKBONE|DICT|INTERRES
    41   19   21 2    
    42   20   84 1    
    43   20   85 1    
    44   22   23 am   BACKBONE|DICT|INTERRES
    45   22   86 1    
    46   23   24 2    
    47   23   25 1    
    48   25   26 1    
    49   25   27 1    
    50   25   87 1    
    51   26   88 1    
    52   26   89 1    
    53   26   90 1    
    54   27   28 am   BACKBONE|DICT|INTERRES
    55   27   91 1    
    56   28   29 2    
    57   28   30 1    
    58   30   31 1    
    59   30   32 1    
    60   30   92 1    
    61   31   93 1    
    62   31   94 1    
    63   31   95 1    
    64   32   33 am   BACKBONE|DICT|INTERRES
    65   32   96 1    
    66   33   34 2    
    67   33   35 1    
    68   35   36 1    
    69   35   37 1    
    70   35   97 1    
    71   36   98 1    
    72   36   99 1    
    73   36  100 1    
    74   37   38 am   BACKBONE|DICT|INTERRES
    75   37  101 1    
    76   38   39 2    
    77   38   40 1    
    78   40   41 1    
    79   40   42 1    
    80   40  102 1    
    81   41  103 1    
    82   41  104 1    
    83   41  105 1    
    84   42   43 am   BACKBONE|DICT|INTERRES
    85   42  106 1    
    86   43   44 2    
    87   43   45 1    
    88   45   46 1    
    89   45   49 1    
    90   45  107 1    
    91   46   47 1    
    92   46  108 1    
    93   46  109 1    
    94   47   48 1    
    95   48  110 1    
    96   48  111 1    
    97   49   50 am   BACKBONE|DICT|INTERRES
    98   49  112 1    
    99   50   51 2    
   100   50   52 1    
   101   52   53 1    
   102   52   54 1    
   103   52  113 1    
   104   53  114 1    
   105   53  115 1    
   106   53  116 1    
   107   54   55 am   BACKBONE|DICT|INTERRES
   108   54  117 1    
   109   55   56 2    
   110   55   57 1    
   111   57   58 1    
   112   57   59 1    
   113   57  118 1    
   114   58  119 1    
   115   58  120 1    
   116   58  121 1    
   117   59   60 am   BACKBONE|DICT|INTERRES
   118   59  122 1    
   119   60   61 2    
   120   60   62 1    
   121   62   63 1    
   122   62   64 1    
   123   62  123 1    
   124   63  124 1    
   125   63  125 1    
   126   63  126 1    
   127   64   65 am   BACKBONE|DICT|INTERRES
   128   64  127 1    
   129   65   66 2    
@<TRIPOS>SUBSTRUCTURE
     1 UNK         1 GROUP             0       ****    0 ROOT    
