@<TRIPOS>MOLECULE
3R135
127   129    1
SMALL
USER_CHARGES


@<TRIPOS>ATOM
      1 CA        -83.7729   28.1631  -71.1509 C.3       0 UNK        -0.1998 
      2 C         -83.3741   28.3607  -72.6056 C.2       0 UNK         0.4909 
      3 O         -84.2401   28.3918  -73.4802 O.2       0 UNK        -0.5240 
      4 N         -82.0679   28.4957  -72.8689 N.am      1 UNK        -0.4739 
      5 CA        -81.4959   28.6834  -74.2086 C.3       1 UNK         0.0864 
      6 C6        -80.0359   29.1962  -74.1512 C.3       11 UNK        -0.0881 
      7 S7        -79.8471   30.8228  -73.3391 S.3       11 UNK        -0.2682 
      8 C8        -79.5457   30.4173  -71.5842 C.3       11 UNK         0.0289 
      9 C9        -78.4368   29.3930  -71.3876 C.ar      11 UNK        -0.0687 
     10 C10       -78.7515   28.0835  -71.0122 C.ar      11 UNK        -0.0823 
     11 C11       -77.7451   27.1305  -70.8398 C.ar      11 UNK        -0.0830 
     12 C12       -76.4111   27.4977  -71.0386 C.ar      11 UNK        -0.1021 
     13 C13       -76.0818   28.8070  -71.4045 C.ar      11 UNK        -0.0753 
     14 C14       -77.0987   29.7520  -71.5743 C.ar      11 UNK        -0.0933 
     15 C15       -74.6243   29.1937  -71.6027 C.3       11 UNK         0.0166 
     16 S16       -74.0802   28.8727  -73.3065 S.3       11 UNK        -0.2615 
     17 C17       -74.5522   30.4212  -74.1616 C.3       11 UNK        -0.0865 
     18 CA        -73.3249   31.2345  -74.6491 C.3       10 UNK         0.0862 
     19 C         -72.5209   31.8218  -73.4486 C.2       10 UNK         0.5551 
     20 N         -71.3667   31.2681  -73.0909 N.am      10 UNK        -0.7319 
     21 O         -72.9552   32.7961  -72.8394 O.2       10 UNK        -0.5018 
     22 N         -72.5293   30.4488  -75.6019 N.am      10 UNK        -0.4509 
     23 C         -71.4833   30.8976  -76.3056 C.2       10 UNK         0.4899 
     24 O         -71.1924   32.0911  -76.4005 O.2       10 UNK        -0.4839 
     25 CA        -70.6041   29.8439  -77.0152 C.3       9 UNK         0.0222 
     26 CB        -69.1064   30.2068  -76.9412 C.3       9 UNK        -0.1966 
     27 N         -70.8106   28.4582  -76.5643 N.am      9 UNK        -0.4218 
     28 C         -70.6878   27.9473  -75.3293 C.2       9 UNK         0.5020 
     29 O         -70.3650   28.6204  -74.3475 O.2       9 UNK        -0.5274 
     30 CA        -71.0076   26.4418  -75.1652 C.3       8 UNK         0.0270 
     31 CB        -71.1705   26.0343  -73.6889 C.3       8 UNK        -0.1976 
     32 N         -72.2004   26.0084  -75.9084 N.am      8 UNK        -0.4313 
     33 C         -72.2712   25.8358  -77.2382 C.2       8 UNK         0.5041 
     34 O         -71.3120   26.0250  -77.9875 O.2       8 UNK        -0.5577 
     35 CA        -73.6205   25.4289  -77.8614 C.3       7 UNK         0.0284 
     36 CB        -73.6135   23.9342  -78.2198 C.3       7 UNK        -0.1958 
     37 N         -74.7867   25.7107  -77.0248 N.am      7 UNK        -0.4454 
     38 C         -75.1791   26.9192  -76.5971 C.2       7 UNK         0.5089 
     39 O         -74.6348   27.9736  -76.9260 O.2       7 UNK        -0.5125 
     40 CA        -76.3683   26.9505  -75.6184 C.3       6 UNK         0.0408 
     41 CB        -77.6467   27.3414  -76.3719 C.3       6 UNK        -0.1791 
     42 N         -76.5921   25.6922  -74.8901 N.am      6 UNK        -0.4762 
     43 C         -75.7012   25.0888  -74.0838 C.2       6 UNK         0.5007 
     44 O         -74.5591   25.5118  -73.9011 O.2       6 UNK        -0.5032 
     45 CA        -76.0951   23.7492  -73.4373 C.3       5 UNK         0.0783 
     46 C46       -76.6289   23.9013  -71.9921 C.3       11 UNK        -0.0857 
     47 S47       -78.3062   24.6125  -71.8529 S.3       11 UNK        -0.2512 
     48 C48       -78.1114   25.7155  -70.4184 C.3       11 UNK         0.0225 
     49 N         -76.9902   22.9686  -74.2978 N.am      5 UNK        -0.4615 
     50 C         -76.7112   21.7399  -74.7550 C.2       4 UNK         0.5053 
     51 O         -75.6769   21.1283  -74.4847 O.2       4 UNK        -0.5105 
     52 CA        -77.7476   21.0560  -75.6666 C.3       4 UNK         0.0263 
     53 CB        -78.6328   20.1048  -74.8449 C.3       4 UNK        -0.1981 
     54 N         -78.6043   21.9831  -76.4062 N.am      4 UNK        -0.4224 
     55 C         -78.1874   22.8634  -77.3268 C.2       3 UNK         0.4895 
     56 O         -77.0185   22.9721  -77.6973 O.2       3 UNK        -0.5091 
     57 CA        -79.2531   23.8071  -77.9136 C.3       3 UNK         0.0250 
     58 CB        -79.7850   23.2473  -79.2427 C.3       3 UNK        -0.1996 
     59 N         -80.3871   24.0997  -77.0237 N.am      3 UNK        -0.4254 
     60 C         -80.2991   24.6103  -75.7870 C.2       2 UNK         0.5004 
     61 O         -79.2336   24.7999  -75.1968 O.2       2 UNK        -0.5226 
     62 CA        -81.6209   24.9129  -75.0659 C.3       2 UNK         0.0269 
     63 CB        -81.9073   23.8365  -74.0065 C.3       2 UNK        -0.1926 
     64 N         -81.5870   26.2253  -74.4183 N.am      2 UNK        -0.4687 
     65 C         -81.5741   27.4003  -75.0664 C.2       1 UNK         0.5165 
     66 O         -81.6291   27.4996  -76.2931 O.2       1 UNK        -0.5079 
     67 H67       -84.2919   27.2126  -71.0303 H         1 UNK         0.0900 
     68 H68       -84.4449   28.9606  -70.8351 H         1 UNK         0.0900 
     69 H69       -82.9096   28.1649  -70.4857 H         1 UNK         0.0900 
     70 H70       -81.4047   28.4819  -72.1106 H         1 UNK         0.2959 
     71 H71       -82.0964   29.4382  -74.7218 H         1 UNK         0.1079 
     72 H72       -79.6579   29.3293  -75.1665 H         1 UNK         0.0837 
     73 H73       -79.3778   28.4581  -73.6918 H         1 UNK         0.0837 
     74 H74       -80.4756   30.0744  -71.1294 H         1 UNK         0.0685 
     75 H75       -79.2803   31.3352  -71.0577 H         1 UNK         0.0685 
     76 H76       -79.7817   27.7992  -70.8530 H         1 UNK         0.1434 
     77 H77       -75.6248   26.7674  -70.9090 H         1 UNK         0.1329 
     78 H78       -76.8540   30.7663  -71.8567 H         1 UNK         0.1335 
     79 H79       -73.9962   28.6138  -70.9248 H         1 UNK         0.0680 
     80 H80       -74.4598   30.2408  -71.3438 H         1 UNK         0.0680 
     81 H81       -75.1770   30.1549  -75.0155 H         1 UNK         0.1032 
     82 H82       -75.1860   31.0349  -73.5205 H         1 UNK         0.1032 
     83 H83       -73.7067   32.0931  -75.2045 H         1 UNK         0.0461 
     84 H84       -70.8494   31.6516  -72.3168 H         1 UNK         0.3453 
     85 H85       -71.0320   30.4361  -73.5649 H         1 UNK         0.3453 
     86 H86       -72.7025   29.4538  -75.5873 H         1 UNK         0.2984 
     87 H87       -70.8999   29.8640  -78.0648 H         1 UNK         0.0554 
     88 H88       -68.4936   29.4753  -77.4677 H         1 UNK         0.0847 
     89 H89       -68.7552   30.2586  -75.9099 H         1 UNK         0.0847 
     90 H90       -68.9117   31.1772  -77.3995 H         1 UNK         0.0847 
     91 H91       -71.0573   27.7908  -77.2919 H         1 UNK         0.3141 
     92 H92       -70.1473   25.8985  -75.5615 H         1 UNK         0.0743 
     93 H93       -70.2707   26.2606  -73.1154 H         1 UNK         0.0784 
     94 H94       -72.0004   26.5621  -73.2172 H         1 UNK         0.0784 
     95 H95       -71.3558   24.9647  -73.5893 H         1 UNK         0.0784 
     96 H96       -73.0430   25.8747  -75.3573 H         1 UNK         0.3213 
     97 H97       -73.7336   26.0034  -78.7831 H         1 UNK         0.0855 
     98 H98       -73.5479   23.3059  -77.3305 H         1 UNK         0.0814 
     99 H99       -72.7635   23.6878  -78.8579 H         1 UNK         0.0814 
    100 H100      -74.5155   23.6522  -78.7635 H         1 UNK         0.0814 
    101 H101      -75.3239   24.9125  -76.7150 H         1 UNK         0.3105 
    102 H102      -76.1723   27.7199  -74.8719 H         1 UNK         0.0547 
    103 H103      -78.5122   27.3368  -75.7132 H         1 UNK         0.0837 
    104 H104      -77.5601   28.3437  -76.7932 H         1 UNK         0.0837 
    105 H105      -77.8533   26.6587  -77.1949 H         1 UNK         0.0837 
    106 H106      -77.5303   25.3010  -74.9655 H         1 UNK         0.3020 
    107 H107      -75.1448   23.2177  -73.3452 H         1 UNK         0.1245 
    108 H108      -75.9235   24.4835  -71.3979 H         1 UNK         0.0781 
    109 H109      -76.6580   22.9182  -71.5200 H         1 UNK         0.0781 
    110 H110      -77.3673   25.3173  -69.7269 H         1 UNK         0.0836 
    111 H111      -79.0510   25.7263  -69.8640 H         1 UNK         0.0836 
    112 H112      -77.8628   23.4147  -74.5602 H         1 UNK         0.3022 
    113 H113      -77.1944   20.4642  -76.3991 H         1 UNK         0.0747 
    114 H114      -79.3135   19.5422  -75.4842 H         1 UNK         0.0793 
    115 H115      -78.0264   19.3778  -74.3026 H         1 UNK         0.0793 
    116 H116      -79.2296   20.6448  -74.1084 H         1 UNK         0.0793 
    117 H117      -79.5856   21.9786  -76.1706 H         1 UNK         0.3047 
    118 H118      -78.7557   24.7544  -78.1246 H         1 UNK         0.0822 
    119 H119      -78.9674   23.0420  -79.9356 H         1 UNK         0.0807 
    120 H120      -80.4514   23.9559  -79.7350 H         1 UNK         0.0807 
    121 H121      -80.3316   22.3144  -79.0985 H         1 UNK         0.0807 
    122 H122      -81.3054   23.9577  -77.4199 H         1 UNK         0.2946 
    123 H123      -82.4355   24.9149  -75.7938 H         1 UNK         0.1144 
    124 H124      -81.9686   22.8464  -74.4601 H         1 UNK         0.0793 
    125 H125      -82.8557   24.0190  -73.5008 H         1 UNK         0.0793 
    126 H126      -81.1239   23.7990  -73.2478 H         1 UNK         0.0793 
    127 H127      -81.5086   26.2331  -73.4125 H         1 UNK         0.2896 
@<TRIPOS>BOND
     1    1    2 1    
     2    1   67 1    
     3    1   68 1    
     4    1   69 1    
     5    2    3 2    
     6    2    4 am   BACKBONE|DICT|INTERRES
     7    4    5 1    
     8    4   70 1    
     9    5    6 1    
    10    5   65 1    
    11    5   71 1    
    12    6    7 1    
    13    6   72 1    
    14    6   73 1    
    15    7    8 1    
    16    8    9 1    
    17    8   74 1    
    18    8   75 1    
    19    9   10 ar   
    20    9   14 ar   
    21   10   11 ar   
    22   10   76 1    
    23   11   12 ar   
    24   11   48 1    
    25   12   13 ar   
    26   12   77 1    
    27   13   14 ar   
    28   13   15 1    
    29   14   78 1    
    30   15   16 1    
    31   15   79 1    
    32   15   80 1    
    33   16   17 1    
    34   17   18 1    
    35   17   81 1    
    36   17   82 1    
    37   18   19 1    
    38   18   22 1    
    39   18   83 1    
    40   19   20 am   BACKBONE|DICT|INTERRES
    41   19   21 2    
    42   20   84 1    
    43   20   85 1    
    44   22   23 am   BACKBONE|DICT|INTERRES
    45   22   86 1    
    46   23   24 2    
    47   23   25 1    
    48   25   26 1    
    49   25   27 1    
    50   25   87 1    
    51   26   88 1    
    52   26   89 1    
    53   26   90 1    
    54   27   28 am   BACKBONE|DICT|INTERRES
    55   27   91 1    
    56   28   29 2    
    57   28   30 1    
    58   30   31 1    
    59   30   32 1    
    60   30   92 1    
    61   31   93 1    
    62   31   94 1    
    63   31   95 1    
    64   32   33 am   BACKBONE|DICT|INTERRES
    65   32   96 1    
    66   33   34 2    
    67   33   35 1    
    68   35   36 1    
    69   35   37 1    
    70   35   97 1    
    71   36   98 1    
    72   36   99 1    
    73   36  100 1    
    74   37   38 am   BACKBONE|DICT|INTERRES
    75   37  101 1    
    76   38   39 2    
    77   38   40 1    
    78   40   41 1    
    79   40   42 1    
    80   40  102 1    
    81   41  103 1    
    82   41  104 1    
    83   41  105 1    
    84   42   43 am   BACKBONE|DICT|INTERRES
    85   42  106 1    
    86   43   44 2    
    87   43   45 1    
    88   45   46 1    
    89   45   49 1    
    90   45  107 1    
    91   46   47 1    
    92   46  108 1    
    93   46  109 1    
    94   47   48 1    
    95   48  110 1    
    96   48  111 1    
    97   49   50 am   BACKBONE|DICT|INTERRES
    98   49  112 1    
    99   50   51 2    
   100   50   52 1    
   101   52   53 1    
   102   52   54 1    
   103   52  113 1    
   104   53  114 1    
   105   53  115 1    
   106   53  116 1    
   107   54   55 am   BACKBONE|DICT|INTERRES
   108   54  117 1    
   109   55   56 2    
   110   55   57 1    
   111   57   58 1    
   112   57   59 1    
   113   57  118 1    
   114   58  119 1    
   115   58  120 1    
   116   58  121 1    
   117   59   60 am   BACKBONE|DICT|INTERRES
   118   59  122 1    
   119   60   61 2    
   120   60   62 1    
   121   62   63 1    
   122   62   64 1    
   123   62  123 1    
   124   63  124 1    
   125   63  125 1    
   126   63  126 1    
   127   64   65 am   BACKBONE|DICT|INTERRES
   128   64  127 1    
   129   65   66 2    
@<TRIPOS>SUBSTRUCTURE
     1 UNK         1 GROUP             0       ****    0 ROOT    
