@<TRIPOS>MOLECULE
3R135
127   129    1
SMALL
USER_CHARGES


@<TRIPOS>ATOM
      1 CA        -84.7864   29.5636  -74.0722 C.3       0 UNK        -0.1998 
      2 C         -83.6243   29.1564  -74.9655 C.2       0 UNK         0.4909 
      3 O         -83.6609   29.4086  -76.1702 O.2       0 UNK        -0.5240 
      4 N         -82.5924   28.5311  -74.3831 N.am      1 UNK        -0.4739 
      5 CA        -81.3860   28.0622  -75.0822 C.3       1 UNK         0.0864 
      6 C6        -80.2461   27.7129  -74.0916 C.3       11 UNK        -0.0881 
      7 S7        -79.7816   29.1556  -73.0723 S.3       11 UNK        -0.2682 
      8 C8        -78.1400   29.6011  -73.7212 C.3       11 UNK         0.0289 
      9 C9        -77.0572   29.3096  -72.6948 C.ar      11 UNK        -0.0687 
     10 C10       -76.3558   28.1017  -72.7210 C.ar      11 UNK        -0.0823 
     11 C11       -75.3526   27.8425  -71.7795 C.ar      11 UNK        -0.0830 
     12 C12       -75.0637   28.7965  -70.7988 C.ar      11 UNK        -0.1021 
     13 C13       -75.7584   30.0092  -70.7661 C.ar      11 UNK        -0.0753 
     14 C14       -76.7518   30.2596  -71.7166 C.ar      11 UNK        -0.0933 
     15 C15       -75.4502   31.0522  -69.7031 C.3       11 UNK         0.0166 
     16 S16       -74.3836   32.3803  -70.3469 S.3       11 UNK        -0.2615 
     17 C17       -72.7359   31.5932  -70.3284 C.3       11 UNK        -0.0865 
     18 CA        -72.0980   31.4726  -71.7380 C.3       10 UNK         0.0862 
     19 C         -70.6118   31.0126  -71.6269 C.2       10 UNK         0.5551 
     20 N         -70.2121   29.8663  -72.1657 N.am      10 UNK        -0.7319 
     21 O         -69.7994   31.7199  -71.0360 O.2       10 UNK        -0.5018 
     22 N         -72.9280   30.6664  -72.6472 N.am      10 UNK        -0.4509 
     23 C         -72.7980   30.6414  -73.9776 C.2       10 UNK         0.4899 
     24 O         -72.0440   31.3768  -74.6183 O.2       10 UNK        -0.4839 
     25 CA        -73.6429   29.5931  -74.7184 C.3       9 UNK         0.0222 
     26 CB        -74.7417   30.2649  -75.5571 C.3       9 UNK        -0.1966 
     27 N         -72.8232   28.7223  -75.5650 N.am      9 UNK        -0.4218 
     28 C         -71.8126   27.9549  -75.1259 C.2       9 UNK         0.5020 
     29 O         -71.4819   27.8740  -73.9401 O.2       9 UNK        -0.5274 
     30 CA        -71.0742   27.1257  -76.1892 C.3       8 UNK         0.0270 
     31 CB        -70.0508   26.1440  -75.5870 C.3       8 UNK        -0.1976 
     32 N         -72.0560   26.3806  -76.9708 N.am      8 UNK        -0.4313 
     33 C         -72.0982   26.2943  -78.3062 C.2       8 UNK         0.5041 
     34 O         -71.2462   26.7827  -79.0498 O.2       8 UNK        -0.5577 
     35 CA        -73.2991   25.5521  -78.9309 C.3       7 UNK         0.0284 
     36 CB        -72.8977   24.1221  -79.3276 C.3       7 UNK        -0.1958 
     37 N         -74.4787   25.4948  -78.0606 N.am      7 UNK        -0.4454 
     38 C         -75.1709   26.5602  -77.6339 C.2       7 UNK         0.5089 
     39 O         -74.9583   27.7088  -78.0224 O.2       7 UNK        -0.5125 
     40 CA        -76.2526   26.3218  -76.5621 C.3       6 UNK         0.0408 
     41 CB        -77.6394   26.3065  -77.2213 C.3       6 UNK        -0.1791 
     42 N         -76.0988   25.1165  -75.7285 N.am      6 UNK        -0.4762 
     43 C         -75.0081   24.7690  -75.0193 C.2       6 UNK         0.5007 
     44 O         -73.9383   25.3711  -75.1002 O.2       6 UNK        -0.5032 
     45 CA        -75.0960   23.5537  -74.0710 C.3       5 UNK         0.0783 
     46 C46       -74.5730   23.8606  -72.6410 C.3       11 UNK        -0.0857 
     47 S47       -75.5891   25.0740  -71.7253 S.3       11 UNK        -0.2512 
     48 C48       -74.5418   26.5587  -71.8630 C.3       11 UNK         0.0225 
     49 N         -76.4354   22.9668  -74.0532 N.am      5 UNK        -0.4615 
     50 C         -76.7138   21.6634  -73.9919 C.2       4 UNK         0.5053 
     51 O         -75.8585   20.7790  -73.9469 O.2       4 UNK        -0.5105 
     52 CA        -78.2033   21.2784  -73.9965 C.3       4 UNK         0.0263 
     53 CB        -78.9421   21.8338  -72.7609 C.3       4 UNK        -0.1981 
     54 N         -78.8951   21.6281  -75.2458 N.am      4 UNK        -0.4224 
     55 C         -79.1378   22.8441  -75.7579 C.2       3 UNK         0.4895 
     56 O         -78.7868   23.8991  -75.2237 O.2       3 UNK        -0.5091 
     57 CA        -79.8609   22.9129  -77.1166 C.3       3 UNK         0.0250 
     58 CB        -80.2719   21.5426  -77.7053 C.3       3 UNK        -0.1996 
     59 N         -81.0036   23.8294  -77.0608 N.am      3 UNK        -0.4254 
     60 C         -82.1068   23.7090  -76.3091 C.2       2 UNK         0.5004 
     61 O         -82.3352   22.7586  -75.5577 O.2       2 UNK        -0.5226 
     62 CA        -83.1156   24.8685  -76.4077 C.3       2 UNK         0.0269 
     63 CB        -84.5185   24.4721  -75.9103 C.3       2 UNK        -0.1926 
     64 N         -82.6641   26.0390  -75.6540 N.am      2 UNK        -0.4687 
     65 C         -81.6817   26.8744  -76.0222 C.2       1 UNK         0.5165 
     66 O         -81.0394   26.7489  -77.0660 O.2       1 UNK        -0.5079 
     67 H67       -85.7036   29.0793  -74.4061 H         1 UNK         0.0900 
     68 H68       -84.9341   30.6423  -74.1174 H         1 UNK         0.0900 
     69 H69       -84.6168   29.2884  -73.0314 H         1 UNK         0.0900 
     70 H70       -82.6017   28.3813  -73.3840 H         1 UNK         0.2959 
     71 H71       -81.0375   28.8782  -75.7198 H         1 UNK         0.1079 
     72 H72       -80.5543   26.9081  -73.4215 H         1 UNK         0.0837 
     73 H73       -79.3686   27.3367  -74.6188 H         1 UNK         0.0837 
     74 H74       -78.1384   30.6652  -73.9623 H         1 UNK         0.0685 
     75 H75       -77.9303   29.0845  -74.6587 H         1 UNK         0.0685 
     76 H76       -76.5818   27.3645  -73.4791 H         1 UNK         0.1434 
     77 H77       -74.2917   28.6004  -70.0671 H         1 UNK         0.1329 
     78 H78       -77.2915   31.1967  -71.6922 H         1 UNK         0.1335 
     79 H79       -74.9884   30.5942  -68.8269 H         1 UNK         0.0680 
     80 H80       -76.3840   31.4951  -69.3532 H         1 UNK         0.0680 
     81 H81       -72.1045   32.2019  -69.6780 H         1 UNK         0.1032 
     82 H82       -72.7902   30.6135  -69.8513 H         1 UNK         0.1032 
     83 H83       -72.0584   32.4791  -72.1592 H         1 UNK         0.0461 
     84 H84       -70.8496   29.2699  -72.6836 H         1 UNK         0.3453 
     85 H85       -69.2456   29.5975  -72.0770 H         1 UNK         0.3453 
     86 H86       -73.5926   30.0460  -72.2067 H         1 UNK         0.2984 
     87 H87       -74.1224   28.9495  -73.9838 H         1 UNK         0.0554 
     88 H88       -75.4057   29.5291  -76.0093 H         1 UNK         0.0847 
     89 H89       -74.3220   30.8765  -76.3567 H         1 UNK         0.0847 
     90 H90       -75.3593   30.9162  -74.9372 H         1 UNK         0.0847 
     91 H91       -73.0367   28.7188  -76.5529 H         1 UNK         0.3141 
     92 H92       -70.5410   27.8356  -76.8248 H         1 UNK         0.0743 
     93 H93       -70.5302   25.4250  -74.9213 H         1 UNK         0.0784 
     94 H94       -69.5322   25.5859  -76.3665 H         1 UNK         0.0784 
     95 H95       -69.2932   26.6740  -75.0083 H         1 UNK         0.0784 
     96 H96       -72.8100   25.9661  -76.4223 H         1 UNK         0.3213 
     97 H97       -73.5801   26.0950  -79.8359 H         1 UNK         0.0855 
     98 H98       -72.6219   23.5240  -78.4581 H         1 UNK         0.0814 
     99 H99       -72.0397   24.1311  -80.0015 H         1 UNK         0.0814 
    100 H100      -73.7084   23.6102  -79.8465 H         1 UNK         0.0814 
    101 H101      -74.7257   24.5920  -77.6830 H         1 UNK         0.3105 
    102 H102      -76.2124   27.1752  -75.8835 H         1 UNK         0.0547 
    103 H103      -77.8151   27.2198  -77.7918 H         1 UNK         0.0837 
    104 H104      -77.7499   25.4672  -77.9082 H         1 UNK         0.0837 
    105 H105      -78.4328   26.2372  -76.4795 H         1 UNK         0.0837 
    106 H106      -76.9424   24.5653  -75.6146 H         1 UNK         0.3020 
    107 H107      -74.4142   22.8227  -74.5120 H         1 UNK         0.1245 
    108 H108      -73.5342   24.1950  -72.6746 H         1 UNK         0.0781 
    109 H109      -74.5564   22.9387  -72.0579 H         1 UNK         0.0781 
    110 H110      -74.0038   26.5632  -72.8107 H         1 UNK         0.0836 
    111 H111      -73.7790   26.5222  -71.0837 H         1 UNK         0.0836 
    112 H112      -77.2202   23.6081  -74.1077 H         1 UNK         0.3022 
    113 H113      -78.2434   20.1897  -73.9310 H         1 UNK         0.0747 
    114 H114      -79.9710   21.4757  -72.7246 H         1 UNK         0.0793 
    115 H115      -78.4542   21.5121  -71.8399 H         1 UNK         0.0793 
    116 H116      -78.9706   22.9236  -72.7467 H         1 UNK         0.0793 
    117 H117      -79.2106   20.8366  -75.7891 H         1 UNK         0.3047 
    118 H118      -79.1478   23.3619  -77.8092 H         1 UNK         0.0822 
    119 H119      -80.7629   21.6667  -78.6707 H         1 UNK         0.0807 
    120 H120      -80.9614   21.0009  -77.0567 H         1 UNK         0.0807 
    121 H121      -79.4023   20.9065  -77.8758 H         1 UNK         0.0807 
    122 H122      -80.8769   24.7155  -77.5383 H         1 UNK         0.2946 
    123 H123      -83.2033   25.1422  -77.4620 H         1 UNK         0.1144 
    124 H124      -85.2358   25.2787  -76.0633 H         1 UNK         0.0793 
    125 H125      -84.5177   24.2209  -74.8488 H         1 UNK         0.0793 
    126 H126      -84.8918   23.6014  -76.4511 H         1 UNK         0.0793 
    127 H127      -83.1304   26.2180  -74.7766 H         1 UNK         0.2896 
@<TRIPOS>BOND
     1    1    2 1    
     2    1   67 1    
     3    1   68 1    
     4    1   69 1    
     5    2    3 2    
     6    2    4 am   BACKBONE|DICT|INTERRES
     7    4    5 1    
     8    4   70 1    
     9    5    6 1    
    10    5   65 1    
    11    5   71 1    
    12    6    7 1    
    13    6   72 1    
    14    6   73 1    
    15    7    8 1    
    16    8    9 1    
    17    8   74 1    
    18    8   75 1    
    19    9   10 ar   
    20    9   14 ar   
    21   10   11 ar   
    22   10   76 1    
    23   11   12 ar   
    24   11   48 1    
    25   12   13 ar   
    26   12   77 1    
    27   13   14 ar   
    28   13   15 1    
    29   14   78 1    
    30   15   16 1    
    31   15   79 1    
    32   15   80 1    
    33   16   17 1    
    34   17   18 1    
    35   17   81 1    
    36   17   82 1    
    37   18   19 1    
    38   18   22 1    
    39   18   83 1    
    40   19   20 am   BACKBONE|DICT|INTERRES
    41   19   21 2    
    42   20   84 1    
    43   20   85 1    
    44   22   23 am   BACKBONE|DICT|INTERRES
    45   22   86 1    
    46   23   24 2    
    47   23   25 1    
    48   25   26 1    
    49   25   27 1    
    50   25   87 1    
    51   26   88 1    
    52   26   89 1    
    53   26   90 1    
    54   27   28 am   BACKBONE|DICT|INTERRES
    55   27   91 1    
    56   28   29 2    
    57   28   30 1    
    58   30   31 1    
    59   30   32 1    
    60   30   92 1    
    61   31   93 1    
    62   31   94 1    
    63   31   95 1    
    64   32   33 am   BACKBONE|DICT|INTERRES
    65   32   96 1    
    66   33   34 2    
    67   33   35 1    
    68   35   36 1    
    69   35   37 1    
    70   35   97 1    
    71   36   98 1    
    72   36   99 1    
    73   36  100 1    
    74   37   38 am   BACKBONE|DICT|INTERRES
    75   37  101 1    
    76   38   39 2    
    77   38   40 1    
    78   40   41 1    
    79   40   42 1    
    80   40  102 1    
    81   41  103 1    
    82   41  104 1    
    83   41  105 1    
    84   42   43 am   BACKBONE|DICT|INTERRES
    85   42  106 1    
    86   43   44 2    
    87   43   45 1    
    88   45   46 1    
    89   45   49 1    
    90   45  107 1    
    91   46   47 1    
    92   46  108 1    
    93   46  109 1    
    94   47   48 1    
    95   48  110 1    
    96   48  111 1    
    97   49   50 am   BACKBONE|DICT|INTERRES
    98   49  112 1    
    99   50   51 2    
   100   50   52 1    
   101   52   53 1    
   102   52   54 1    
   103   52  113 1    
   104   53  114 1    
   105   53  115 1    
   106   53  116 1    
   107   54   55 am   BACKBONE|DICT|INTERRES
   108   54  117 1    
   109   55   56 2    
   110   55   57 1    
   111   57   58 1    
   112   57   59 1    
   113   57  118 1    
   114   58  119 1    
   115   58  120 1    
   116   58  121 1    
   117   59   60 am   BACKBONE|DICT|INTERRES
   118   59  122 1    
   119   60   61 2    
   120   60   62 1    
   121   62   63 1    
   122   62   64 1    
   123   62  123 1    
   124   63  124 1    
   125   63  125 1    
   126   63  126 1    
   127   64   65 am   BACKBONE|DICT|INTERRES
   128   64  127 1    
   129   65   66 2    
@<TRIPOS>SUBSTRUCTURE
     1 UNK         1 GROUP             0       ****    0 ROOT    
