@<TRIPOS>MOLECULE
3R135
127   129    1
SMALL
USER_CHARGES


@<TRIPOS>ATOM
      1 CA        -81.6872   28.9398  -75.1268 C.3       0 UNK        -0.1998 
      2 C         -81.0481   27.6573  -74.6201 C.2       0 UNK         0.4909 
      3 O         -80.0559   27.1993  -75.1862 O.2       0 UNK        -0.5240 
      4 N         -81.6009   27.0637  -73.5550 N.am      1 UNK        -0.4739 
      5 CA        -81.0732   25.8450  -72.9245 C.3       1 UNK         0.0864 
      6 C6        -81.5600   25.6755  -71.4655 C.3       11 UNK        -0.0881 
      7 S7        -81.0377   27.0544  -70.3927 S.3       11 UNK        -0.2682 
      8 C8        -79.2899   26.6194  -70.0598 C.3       11 UNK         0.0289 
      9 C9        -78.2446   27.6423  -70.5198 C.ar      11 UNK        -0.0687 
     10 C10       -78.5694   28.8045  -71.2347 C.ar      11 UNK        -0.0823 
     11 C11       -77.5822   29.7362  -71.5713 C.ar      11 UNK        -0.0830 
     12 C12       -76.2624   29.5108  -71.1791 C.ar      11 UNK        -0.1021 
     13 C13       -75.9062   28.3324  -70.5212 C.ar      11 UNK        -0.0753 
     14 C14       -76.9036   27.4076  -70.1920 C.ar      11 UNK        -0.0933 
     15 C15       -74.4529   28.0670  -70.1447 C.3       11 UNK         0.0166 
     16 S16       -73.3595   27.9322  -71.6023 S.3       11 UNK        -0.2615 
     17 C17       -72.7707   29.6507  -71.8237 C.3       11 UNK        -0.0865 
     18 CA        -73.2004   30.2755  -73.1842 C.3       10 UNK         0.0862 
     19 C         -72.9860   31.8190  -73.2452 C.2       10 UNK         0.5551 
     20 N         -72.7269   32.4025  -74.4092 N.am      10 UNK        -0.7319 
     21 O         -73.0868   32.5060  -72.2316 O.2       10 UNK        -0.5018 
     22 N         -72.6861   29.5379  -74.3494 N.am      10 UNK        -0.4509 
     23 C         -71.4067   29.3938  -74.7124 C.2       10 UNK         0.4899 
     24 O         -70.4515   29.8719  -74.0978 O.2       10 UNK        -0.4839 
     25 CA        -71.1790   28.5581  -75.9863 C.3       9 UNK         0.0222 
     26 CB        -69.7212   28.6056  -76.4914 C.3       9 UNK        -0.1966 
     27 N         -71.6329   27.1723  -75.8161 N.am      9 UNK        -0.4218 
     28 C         -71.1988   26.2737  -74.9156 C.2       9 UNK         0.5020 
     29 O         -70.2821   26.4839  -74.1199 O.2       9 UNK        -0.5274 
     30 CA        -71.8860   24.8955  -74.8925 C.3       8 UNK         0.0270 
     31 CB        -72.4387   24.5752  -73.4919 C.3       8 UNK        -0.1976 
     32 N         -72.9682   24.7852  -75.8770 N.am      8 UNK        -0.4313 
     33 C         -72.8247   24.2373  -77.0915 C.2       8 UNK         0.5041 
     34 O         -71.7672   23.7580  -77.5032 O.2       8 UNK        -0.5577 
     35 CA        -74.0532   24.2190  -78.0163 C.3       7 UNK         0.0284 
     36 CB        -74.9304   22.9889  -77.7361 C.3       7 UNK        -0.1958 
     37 N         -74.8733   25.4325  -77.9689 N.am      7 UNK        -0.4454 
     38 C         -74.4692   26.6405  -78.3875 C.2       7 UNK         0.5089 
     39 O         -73.3124   26.9043  -78.7147 O.2       7 UNK        -0.5125 
     40 CA        -75.5405   27.7388  -78.4544 C.3       6 UNK         0.0408 
     41 CB        -76.5139   27.4903  -79.6186 C.3       6 UNK        -0.1791 
     42 N         -76.2834   27.8228  -77.2005 N.am      6 UNK        -0.4762 
     43 C         -75.8486   28.4832  -76.1187 C.2       6 UNK         0.5007 
     44 O         -74.8171   29.1539  -76.1021 O.2       6 UNK        -0.5032 
     45 CA        -76.6758   28.3236  -74.8261 C.3       5 UNK         0.0783 
     46 C46       -77.7809   29.4060  -74.7233 C.3       11 UNK        -0.0857 
     47 S47       -77.1626   30.9751  -74.0272 S.3       11 UNK        -0.2512 
     48 C48       -77.9344   30.9827  -72.3725 C.3       11 UNK         0.0225 
     49 N         -77.2147   26.9651  -74.6857 N.am      5 UNK        -0.4615 
     50 C         -76.4464   25.8719  -74.5629 C.2       4 UNK         0.5053 
     51 O         -75.2177   25.9046  -74.5564 O.2       4 UNK        -0.5105 
     52 CA        -77.1350   24.4996  -74.4887 C.3       4 UNK         0.0263 
     53 CB        -77.3819   24.1096  -73.0235 C.3       4 UNK        -0.1981 
     54 N         -78.3777   24.3779  -75.2579 N.am      4 UNK        -0.4224 
     55 C         -78.5263   24.6514  -76.5639 C.2       3 UNK         0.4895 
     56 O         -77.6193   25.0843  -77.2778 O.2       3 UNK        -0.5091 
     57 CA        -79.9114   24.3636  -77.1674 C.3       3 UNK         0.0250 
     58 CB        -79.9235   24.4795  -78.7030 C.3       3 UNK        -0.1996 
     59 N         -80.3255   23.0122  -76.7836 N.am      3 UNK        -0.4254 
     60 C         -81.4486   22.5995  -76.1773 C.2       2 UNK         0.5004 
     61 O         -81.6152   21.4055  -75.9281 O.2       2 UNK        -0.5226 
     62 CA        -82.5493   23.6129  -75.7658 C.3       2 UNK         0.0269 
     63 CB        -83.8082   22.9127  -75.2128 C.3       2 UNK        -0.1926 
     64 N         -82.1387   24.6561  -74.8117 N.am      2 UNK        -0.4687 
     65 C         -81.3287   24.5603  -73.7452 C.2       1 UNK         0.5165 
     66 O         -80.7467   23.5286  -73.4132 O.2       1 UNK        -0.5079 
     67 H67       -82.5748   29.2066  -74.5536 H         1 UNK         0.0900 
     68 H68       -81.9772   28.8259  -76.1708 H         1 UNK         0.0900 
     69 H69       -80.9777   29.7638  -75.0582 H         1 UNK         0.0900 
     70 H70       -82.4079   27.4772  -73.1088 H         1 UNK         0.2959 
     71 H71       -79.9884   25.9552  -72.8900 H         1 UNK         0.1079 
     72 H72       -81.1917   24.7445  -71.0291 H         1 UNK         0.0837 
     73 H73       -82.6491   25.6094  -71.4341 H         1 UNK         0.0837 
     74 H74       -79.1872   26.4847  -68.9821 H         1 UNK         0.0685 
     75 H75       -79.0538   25.6533  -70.5057 H         1 UNK         0.0685 
     76 H76       -79.5896   29.0004  -71.5303 H         1 UNK         0.1434 
     77 H77       -75.5093   30.2471  -71.4130 H         1 UNK         0.1329 
     78 H78       -76.6382   26.5048  -69.6589 H         1 UNK         0.1335 
     79 H79       -74.3765   27.1323  -69.5873 H         1 UNK         0.0680 
     80 H80       -74.0984   28.8452  -69.4679 H         1 UNK         0.0680 
     81 H81       -73.1341   30.2554  -70.9921 H         1 UNK         0.1032 
     82 H82       -71.6840   29.6570  -71.7299 H         1 UNK         0.1032 
     83 H83       -74.2801   30.1642  -73.2628 H         1 UNK         0.0461 
     84 H84       -72.6002   33.4015  -74.4456 H         1 UNK         0.3453 
     85 H85       -72.6657   31.8522  -75.2506 H         1 UNK         0.3453 
     86 H86       -73.4062   29.1818  -74.9745 H         1 UNK         0.2984 
     87 H87       -71.8087   28.9926  -76.7647 H         1 UNK         0.0554 
     88 H88       -69.6043   28.0418  -77.4168 H         1 UNK         0.0847 
     89 H89       -69.0211   28.1994  -75.7608 H         1 UNK         0.0847 
     90 H90       -69.4150   29.6322  -76.6958 H         1 UNK         0.0847 
     91 H91       -72.3770   26.8815  -76.4360 H         1 UNK         0.3141 
     92 H92       -71.1130   24.1559  -75.1110 H         1 UNK         0.0743 
     93 H93       -73.1397   25.3356  -73.1490 H         1 UNK         0.0784 
     94 H94       -72.9508   23.6132  -73.4749 H         1 UNK         0.0784 
     95 H95       -71.6344   24.5275  -72.7569 H         1 UNK         0.0784 
     96 H96       -73.8686   25.1684  -75.5904 H         1 UNK         0.3213 
     97 H97       -73.6798   24.1295  -79.0390 H         1 UNK         0.0855 
     98 H98       -74.3551   22.0683  -77.8431 H         1 UNK         0.0814 
     99 H99       -75.7680   22.9304  -78.4316 H         1 UNK         0.0814 
    100 H100      -75.3350   23.0022  -76.7256 H         1 UNK         0.0814 
    101 H101      -75.8516   25.3142  -77.7096 H         1 UNK         0.3105 
    102 H102      -75.0388   28.6912  -78.6401 H         1 UNK         0.0547 
    103 H103      -77.2391   28.2993  -79.7062 H         1 UNK         0.0837 
    104 H104      -75.9784   27.4323  -80.5671 H         1 UNK         0.0837 
    105 H105      -77.0675   26.5582  -79.5005 H         1 UNK         0.0837 
    106 H106      -77.0948   27.2230  -77.1097 H         1 UNK         0.3020 
    107 H107      -75.9853   28.4543  -73.9890 H         1 UNK         0.1245 
    108 H108      -78.5830   29.0575  -74.0757 H         1 UNK         0.0781 
    109 H109      -78.2534   29.5971  -75.6889 H         1 UNK         0.0781 
    110 H110      -79.0151   31.0828  -72.4849 H         1 UNK         0.0836 
    111 H111      -77.5998   31.8671  -71.8285 H         1 UNK         0.0836 
    112 H112      -78.2242   26.8699  -74.7615 H         1 UNK         0.3022 
    113 H113      -76.4391   23.7713  -74.9050 H         1 UNK         0.0747 
    114 H114      -77.8212   23.1152  -72.9414 H         1 UNK         0.0793 
    115 H115      -78.0440   24.8135  -72.5229 H         1 UNK         0.0793 
    116 H116      -76.4456   24.0969  -72.4634 H         1 UNK         0.0793 
    117 H117      -79.1695   23.9865  -74.7618 H         1 UNK         0.3047 
    118 H118      -80.5857   25.1246  -76.7810 H         1 UNK         0.0822 
    119 H119      -79.6414   25.4842  -79.0212 H         1 UNK         0.0807 
    120 H120      -80.9153   24.2795  -79.1085 H         1 UNK         0.0807 
    121 H121      -79.2248   23.7818  -79.1665 H         1 UNK         0.0807 
    122 H122      -79.6383   22.3006  -76.9893 H         1 UNK         0.2946 
    123 H123      -82.8414   24.1229  -76.6854 H         1 UNK         0.1144 
    124 H124      -84.1908   22.1730  -75.9174 H         1 UNK         0.0793 
    125 H125      -83.6000   22.3961  -74.2749 H         1 UNK         0.0793 
    126 H126      -84.6115   23.6263  -75.0296 H         1 UNK         0.0793 
    127 H127      -82.5227   25.5736  -74.9905 H         1 UNK         0.2896 
@<TRIPOS>BOND
     1    1    2 1    
     2    1   67 1    
     3    1   68 1    
     4    1   69 1    
     5    2    3 2    
     6    2    4 am   BACKBONE|DICT|INTERRES
     7    4    5 1    
     8    4   70 1    
     9    5    6 1    
    10    5   65 1    
    11    5   71 1    
    12    6    7 1    
    13    6   72 1    
    14    6   73 1    
    15    7    8 1    
    16    8    9 1    
    17    8   74 1    
    18    8   75 1    
    19    9   10 ar   
    20    9   14 ar   
    21   10   11 ar   
    22   10   76 1    
    23   11   12 ar   
    24   11   48 1    
    25   12   13 ar   
    26   12   77 1    
    27   13   14 ar   
    28   13   15 1    
    29   14   78 1    
    30   15   16 1    
    31   15   79 1    
    32   15   80 1    
    33   16   17 1    
    34   17   18 1    
    35   17   81 1    
    36   17   82 1    
    37   18   19 1    
    38   18   22 1    
    39   18   83 1    
    40   19   20 am   BACKBONE|DICT|INTERRES
    41   19   21 2    
    42   20   84 1    
    43   20   85 1    
    44   22   23 am   BACKBONE|DICT|INTERRES
    45   22   86 1    
    46   23   24 2    
    47   23   25 1    
    48   25   26 1    
    49   25   27 1    
    50   25   87 1    
    51   26   88 1    
    52   26   89 1    
    53   26   90 1    
    54   27   28 am   BACKBONE|DICT|INTERRES
    55   27   91 1    
    56   28   29 2    
    57   28   30 1    
    58   30   31 1    
    59   30   32 1    
    60   30   92 1    
    61   31   93 1    
    62   31   94 1    
    63   31   95 1    
    64   32   33 am   BACKBONE|DICT|INTERRES
    65   32   96 1    
    66   33   34 2    
    67   33   35 1    
    68   35   36 1    
    69   35   37 1    
    70   35   97 1    
    71   36   98 1    
    72   36   99 1    
    73   36  100 1    
    74   37   38 am   BACKBONE|DICT|INTERRES
    75   37  101 1    
    76   38   39 2    
    77   38   40 1    
    78   40   41 1    
    79   40   42 1    
    80   40  102 1    
    81   41  103 1    
    82   41  104 1    
    83   41  105 1    
    84   42   43 am   BACKBONE|DICT|INTERRES
    85   42  106 1    
    86   43   44 2    
    87   43   45 1    
    88   45   46 1    
    89   45   49 1    
    90   45  107 1    
    91   46   47 1    
    92   46  108 1    
    93   46  109 1    
    94   47   48 1    
    95   48  110 1    
    96   48  111 1    
    97   49   50 am   BACKBONE|DICT|INTERRES
    98   49  112 1    
    99   50   51 2    
   100   50   52 1    
   101   52   53 1    
   102   52   54 1    
   103   52  113 1    
   104   53  114 1    
   105   53  115 1    
   106   53  116 1    
   107   54   55 am   BACKBONE|DICT|INTERRES
   108   54  117 1    
   109   55   56 2    
   110   55   57 1    
   111   57   58 1    
   112   57   59 1    
   113   57  118 1    
   114   58  119 1    
   115   58  120 1    
   116   58  121 1    
   117   59   60 am   BACKBONE|DICT|INTERRES
   118   59  122 1    
   119   60   61 2    
   120   60   62 1    
   121   62   63 1    
   122   62   64 1    
   123   62  123 1    
   124   63  124 1    
   125   63  125 1    
   126   63  126 1    
   127   64   65 am   BACKBONE|DICT|INTERRES
   128   64  127 1    
   129   65   66 2    
@<TRIPOS>SUBSTRUCTURE
     1 UNK         1 GROUP             0       ****    0 ROOT    
