@<TRIPOS>MOLECULE
3R135
127   129    1
SMALL
USER_CHARGES


@<TRIPOS>ATOM
      1 CA        -80.3027   31.4423  -76.6878 C.3       0 UNK        -0.1998 
      2 C         -80.9904   30.3398  -75.8961 C.2       0 UNK         0.4909 
      3 O         -82.2157   30.3505  -75.7730 O.2       0 UNK        -0.5240 
      4 N         -80.2059   29.3970  -75.3567 N.am      1 UNK        -0.4739 
      5 CA        -80.6590   28.2210  -74.6041 C.3       1 UNK         0.0864 
      6 C6        -81.3911   28.5911  -73.2813 C.3       11 UNK        -0.0881 
      7 S7        -81.1871   27.3152  -71.9882 S.3       11 UNK        -0.2682 
      8 C8        -80.0497   28.1324  -70.8225 C.3       11 UNK         0.0289 
      9 C9        -78.5922   28.0041  -71.2465 C.ar      11 UNK        -0.0687 
     10 C10       -77.7694   27.0444  -70.6486 C.ar      11 UNK        -0.0823 
     11 C11       -76.4151   26.9510  -70.9877 C.ar      11 UNK        -0.0830 
     12 C12       -75.8907   27.8169  -71.9542 C.ar      11 UNK        -0.1021 
     13 C13       -76.7058   28.7744  -72.5666 C.ar      11 UNK        -0.0753 
     14 C14       -78.0517   28.8682  -72.2026 C.ar      11 UNK        -0.0933 
     15 C15       -76.1414   29.7078  -73.6266 C.3       11 UNK         0.0166 
     16 S16       -75.8748   31.3920  -72.9882 S.3       11 UNK        -0.2615 
     17 C17       -74.4026   31.1734  -71.9275 C.3       11 UNK        -0.0865 
     18 CA        -73.1216   31.8253  -72.5282 C.3       10 UNK         0.0862 
     19 C         -71.9284   31.8381  -71.5227 C.2       10 UNK         0.5551 
     20 N         -70.6853   31.7112  -71.9708 N.am      10 UNK        -0.7319 
     21 O         -72.1260   32.0026  -70.3211 O.2       10 UNK        -0.5018 
     22 N         -72.7955   31.3239  -73.8780 N.am      10 UNK        -0.4509 
     23 C         -72.4607   30.0661  -74.1947 C.2       10 UNK         0.4899 
     24 O         -72.3645   29.1565  -73.3687 O.2       10 UNK        -0.4839 
     25 CA        -72.2550   29.7920  -75.6984 C.3       9 UNK         0.0222 
     26 CB        -71.2036   30.7301  -76.3326 C.3       9 UNK        -0.1966 
     27 N         -71.9598   28.3840  -75.9909 N.am      9 UNK        -0.4218 
     28 C         -70.8563   27.6824  -75.6803 C.2       9 UNK         0.5020 
     29 O         -69.8480   28.1712  -75.1673 O.2       9 UNK        -0.5274 
     30 CA        -70.8633   26.1724  -75.9908 C.3       8 UNK         0.0270 
     31 CB        -70.7523   25.3490  -74.6951 C.3       8 UNK        -0.1976 
     32 N         -72.0615   25.7512  -76.7224 N.am      8 UNK        -0.4313 
     33 C         -72.1758   25.7539  -78.0588 C.2       8 UNK         0.5041 
     34 O         -71.2534   26.0502  -78.8193 O.2       8 UNK        -0.5577 
     35 CA        -73.5440   25.3808  -78.6617 C.3       7 UNK         0.0284 
     36 CB        -73.5312   23.9274  -79.1619 C.3       7 UNK        -0.1958 
     37 N         -74.6667   25.5688  -77.7377 N.am      7 UNK        -0.4454 
     38 C         -75.1033   26.7641  -77.3100 C.2       7 UNK         0.5089 
     39 O         -74.6173   27.8347  -77.6740 O.2       7 UNK        -0.5125 
     40 CA        -76.2273   26.7770  -76.2559 C.3       6 UNK         0.0408 
     41 CB        -77.5932   26.9058  -76.9419 C.3       6 UNK        -0.1791 
     42 N         -76.2396   25.6110  -75.3667 N.am      6 UNK        -0.4762 
     43 C         -75.2002   25.2010  -74.6199 C.2       6 UNK         0.5007 
     44 O         -74.1225   25.7950  -74.5894 O.2       6 UNK        -0.5032 
     45 CA        -75.3441   23.8622  -73.8557 C.3       5 UNK         0.0783 
     46 C46       -75.7752   24.0743  -72.3832 C.3       11 UNK        -0.0857 
     47 S47       -74.5066   24.9119  -71.3745 S.3       11 UNK        -0.2512 
     48 C48       -75.5243   25.9423  -70.2658 C.3       11 UNK         0.0225 
     49 N         -76.2529   22.9170  -74.5130 N.am      5 UNK        -0.4615 
     50 C         -76.2097   22.5066  -75.7887 C.2       4 UNK         0.5053 
     51 O         -75.3043   22.7958  -76.5704 O.2       4 UNK        -0.5105 
     52 CA        -77.4142   21.6900  -76.2972 C.3       4 UNK         0.0263 
     53 CB        -77.0462   20.2012  -76.3971 C.3       4 UNK        -0.1981 
     54 N         -78.6349   21.8350  -75.4884 N.am      4 UNK        -0.4224 
     55 C         -79.2840   22.9855  -75.2533 C.2       3 UNK         0.4895 
     56 O         -78.9167   24.0830  -75.6814 O.2       3 UNK        -0.5091 
     57 CA        -80.4830   22.8972  -74.2966 C.3       3 UNK         0.0250 
     58 CB        -79.9970   22.9416  -72.8372 C.3       3 UNK        -0.1996 
     59 N         -81.4160   24.0014  -74.5065 N.am      3 UNK        -0.4254 
     60 C         -82.2866   24.0987  -75.5207 C.2       2 UNK         0.5004 
     61 O         -82.4660   23.2150  -76.3598 O.2       2 UNK        -0.5226 
     62 CA        -83.1024   25.4016  -75.6063 C.3       2 UNK         0.0269 
     63 CB        -84.4858   25.2152  -74.9621 C.3       2 UNK        -0.1926 
     64 N         -82.4163   26.5212  -74.9549 N.am      2 UNK        -0.4687 
     65 C         -81.4200   27.2232  -75.5114 C.2       1 UNK         0.5165 
     66 O         -81.0701   27.0798  -76.6853 O.2       1 UNK        -0.5079 
     67 H67       -80.5337   32.4150  -76.2543 H         1 UNK         0.0900 
     68 H68       -80.6532   31.4369  -77.7195 H         1 UNK         0.0900 
     69 H69       -79.2192   31.3247  -76.6970 H         1 UNK         0.0900 
     70 H70       -79.2126   29.4359  -75.5325 H         1 UNK         0.2959 
     71 H71       -79.7388   27.7012  -74.3323 H         1 UNK         0.1079 
     72 H72       -81.0084   29.5369  -72.8969 H         1 UNK         0.0837 
     73 H73       -82.4540   28.7756  -73.4491 H         1 UNK         0.0837 
     74 H74       -80.3176   29.1834  -70.7053 H         1 UNK         0.0685 
     75 H75       -80.1898   27.6817  -69.8388 H         1 UNK         0.0685 
     76 H76       -78.1821   26.3837  -69.8983 H         1 UNK         0.1434 
     77 H77       -74.8457   27.7465  -72.2273 H         1 UNK         0.1329 
     78 H78       -78.6738   29.6239  -72.6605 H         1 UNK         0.1335 
     79 H79       -75.2106   29.3119  -74.0321 H         1 UNK         0.0680 
     80 H80       -76.8378   29.7611  -74.4643 H         1 UNK         0.0680 
     81 H81       -74.6407   31.6242  -70.9625 H         1 UNK         0.1032 
     82 H82       -74.2346   30.1162  -71.7220 H         1 UNK         0.1032 
     83 H83       -73.3496   32.8818  -72.6744 H         1 UNK         0.0461 
     84 H84       -69.9186   31.7324  -71.3172 H         1 UNK         0.3453 
     85 H85       -70.5106   31.5751  -72.9533 H         1 UNK         0.3453 
     86 H86       -72.8584   32.0093  -74.6165 H         1 UNK         0.2984 
     87 H87       -73.2129   29.9908  -76.1815 H         1 UNK         0.0554 
     88 H88       -71.0218   30.4721  -77.3759 H         1 UNK         0.0847 
     89 H89       -70.2487   30.6880  -75.8079 H         1 UNK         0.0847 
     90 H90       -71.5341   31.7689  -76.3170 H         1 UNK         0.0847 
     91 H91       -72.7270   27.8737  -76.4092 H         1 UNK         0.3141 
     92 H92       -69.9786   25.9620  -76.5956 H         1 UNK         0.0743 
     93 H93       -71.5648   25.5714  -74.0025 H         1 UNK         0.0784 
     94 H94       -70.7664   24.2785  -74.8998 H         1 UNK         0.0784 
     95 H95       -69.8184   25.5667  -74.1754 H         1 UNK         0.0784 
     96 H96       -72.8764   25.5409  -76.1531 H         1 UNK         0.3213 
     97 H97       -73.7084   26.0339  -79.5217 H         1 UNK         0.0855 
     98 H98       -73.3334   23.2239  -78.3523 H         1 UNK         0.0814 
     99 H99       -72.7550   23.7818  -79.9144 H         1 UNK         0.0814 
    100 H100      -74.4819   23.6541  -79.6199 H         1 UNK         0.0814 
    101 H101      -75.0845   24.7269  -77.3540 H         1 UNK         0.3105 
    102 H102      -76.0747   27.6559  -75.6294 H         1 UNK         0.0547 
    103 H103      -77.6407   27.8002  -77.5645 H         1 UNK         0.0837 
    104 H104      -77.8064   26.0483  -77.5816 H         1 UNK         0.0837 
    105 H105      -78.3946   26.9754  -76.2095 H         1 UNK         0.0837 
    106 H106      -77.0876   25.0521  -75.3698 H         1 UNK         0.3020 
    107 H107      -74.3571   23.3943  -73.8611 H         1 UNK         0.1245 
    108 H108      -75.9676   23.1109  -71.9083 H         1 UNK         0.0781 
    109 H109      -76.7190   24.6206  -72.3407 H         1 UNK         0.0781 
    110 H110      -74.8610   26.4868  -69.5926 H         1 UNK         0.0836 
    111 H111      -76.1207   25.2804  -69.6358 H         1 UNK         0.0836 
    112 H112      -77.0410   22.6134  -73.9622 H         1 UNK         0.3022 
    113 H113      -77.6435   22.0549  -77.3005 H         1 UNK         0.0747 
    114 H114      -77.8504   19.6220  -76.8513 H         1 UNK         0.0793 
    115 H115      -76.1591   20.0588  -77.0164 H         1 UNK         0.0793 
    116 H116      -76.8319   19.7711  -75.4178 H         1 UNK         0.0793 
    117 H117      -78.9987   20.9861  -75.0785 H         1 UNK         0.3047 
    118 H118      -81.0087   21.9558  -74.4711 H         1 UNK         0.0822 
    119 H119      -80.8325   22.8743  -72.1399 H         1 UNK         0.0807 
    120 H120      -79.4546   23.8630  -72.6186 H         1 UNK         0.0807 
    121 H121      -79.3290   22.1082  -72.6162 H         1 UNK         0.0807 
    122 H122      -81.3182   24.7941  -73.8903 H         1 UNK         0.2946 
    123 H123      -83.2431   25.6337  -76.6647 H         1 UNK         0.1144 
    124 H124      -84.4101   24.9778  -73.9001 H         1 UNK         0.0793 
    125 H125      -85.0315   24.4004  -75.4403 H         1 UNK         0.0793 
    126 H126      -85.0944   26.1140  -75.0633 H         1 UNK         0.0793 
    127 H127      -82.6442   26.6999  -73.9858 H         1 UNK         0.2896 
@<TRIPOS>BOND
     1    1    2 1    
     2    1   67 1    
     3    1   68 1    
     4    1   69 1    
     5    2    3 2    
     6    2    4 am   BACKBONE|DICT|INTERRES
     7    4    5 1    
     8    4   70 1    
     9    5    6 1    
    10    5   65 1    
    11    5   71 1    
    12    6    7 1    
    13    6   72 1    
    14    6   73 1    
    15    7    8 1    
    16    8    9 1    
    17    8   74 1    
    18    8   75 1    
    19    9   10 ar   
    20    9   14 ar   
    21   10   11 ar   
    22   10   76 1    
    23   11   12 ar   
    24   11   48 1    
    25   12   13 ar   
    26   12   77 1    
    27   13   14 ar   
    28   13   15 1    
    29   14   78 1    
    30   15   16 1    
    31   15   79 1    
    32   15   80 1    
    33   16   17 1    
    34   17   18 1    
    35   17   81 1    
    36   17   82 1    
    37   18   19 1    
    38   18   22 1    
    39   18   83 1    
    40   19   20 am   BACKBONE|DICT|INTERRES
    41   19   21 2    
    42   20   84 1    
    43   20   85 1    
    44   22   23 am   BACKBONE|DICT|INTERRES
    45   22   86 1    
    46   23   24 2    
    47   23   25 1    
    48   25   26 1    
    49   25   27 1    
    50   25   87 1    
    51   26   88 1    
    52   26   89 1    
    53   26   90 1    
    54   27   28 am   BACKBONE|DICT|INTERRES
    55   27   91 1    
    56   28   29 2    
    57   28   30 1    
    58   30   31 1    
    59   30   32 1    
    60   30   92 1    
    61   31   93 1    
    62   31   94 1    
    63   31   95 1    
    64   32   33 am   BACKBONE|DICT|INTERRES
    65   32   96 1    
    66   33   34 2    
    67   33   35 1    
    68   35   36 1    
    69   35   37 1    
    70   35   97 1    
    71   36   98 1    
    72   36   99 1    
    73   36  100 1    
    74   37   38 am   BACKBONE|DICT|INTERRES
    75   37  101 1    
    76   38   39 2    
    77   38   40 1    
    78   40   41 1    
    79   40   42 1    
    80   40  102 1    
    81   41  103 1    
    82   41  104 1    
    83   41  105 1    
    84   42   43 am   BACKBONE|DICT|INTERRES
    85   42  106 1    
    86   43   44 2    
    87   43   45 1    
    88   45   46 1    
    89   45   49 1    
    90   45  107 1    
    91   46   47 1    
    92   46  108 1    
    93   46  109 1    
    94   47   48 1    
    95   48  110 1    
    96   48  111 1    
    97   49   50 am   BACKBONE|DICT|INTERRES
    98   49  112 1    
    99   50   51 2    
   100   50   52 1    
   101   52   53 1    
   102   52   54 1    
   103   52  113 1    
   104   53  114 1    
   105   53  115 1    
   106   53  116 1    
   107   54   55 am   BACKBONE|DICT|INTERRES
   108   54  117 1    
   109   55   56 2    
   110   55   57 1    
   111   57   58 1    
   112   57   59 1    
   113   57  118 1    
   114   58  119 1    
   115   58  120 1    
   116   58  121 1    
   117   59   60 am   BACKBONE|DICT|INTERRES
   118   59  122 1    
   119   60   61 2    
   120   60   62 1    
   121   62   63 1    
   122   62   64 1    
   123   62  123 1    
   124   63  124 1    
   125   63  125 1    
   126   63  126 1    
   127   64   65 am   BACKBONE|DICT|INTERRES
   128   64  127 1    
   129   65   66 2    
@<TRIPOS>SUBSTRUCTURE
     1 UNK         1 GROUP             0       ****    0 ROOT    
