@<TRIPOS>MOLECULE
3R135
127   129    1
SMALL
USER_CHARGES


@<TRIPOS>ATOM
      1 CA        -74.2945   26.5500  -68.6596 C.3       0 UNK        -0.1998 
      2 C         -75.2660   26.2455  -69.7897 C.2       0 UNK         0.4909 
      3 O         -74.8952   26.3700  -70.9578 O.2       0 UNK        -0.5240 
      4 N         -76.5013   25.8554  -69.4413 N.am      1 UNK        -0.4739 
      5 CA        -77.5930   25.4914  -70.3559 C.3       1 UNK         0.0864 
      6 C6        -78.0413   26.6897  -71.2420 C.3       11 UNK        -0.0881 
      7 S7        -79.8134   26.6556  -71.6797 S.3       11 UNK        -0.2682 
      8 C8        -80.2931   28.3986  -71.4520 C.3       11 UNK         0.0289 
      9 C9        -79.7113   29.2993  -72.5344 C.ar      11 UNK        -0.0687 
     10 C10       -80.3981   29.4928  -73.7364 C.ar      11 UNK        -0.0823 
     11 C11       -79.8832   30.3426  -74.7208 C.ar      11 UNK        -0.0830 
     12 C12       -78.6564   30.9800  -74.5066 C.ar      11 UNK        -0.1021 
     13 C13       -77.9586   30.8006  -73.3072 C.ar      11 UNK        -0.0753 
     14 C14       -78.5031   29.9688  -72.3212 C.ar      11 UNK        -0.0933 
     15 C15       -76.6533   31.5582  -73.0696 C.3       11 UNK         0.0166 
     16 S16       -75.3899   30.5656  -72.2092 S.3       11 UNK        -0.2615 
     17 C17       -73.9862   31.7319  -72.1210 C.3       11 UNK        -0.0865 
     18 CA        -72.8531   31.4122  -73.1453 C.3       10 UNK         0.0862 
     19 C         -71.6507   32.4024  -73.0654 C.2       10 UNK         0.5551 
     20 N         -71.9051   33.6971  -72.9254 N.am      10 UNK        -0.7319 
     21 O         -70.4855   32.0232  -73.1745 O.2       10 UNK        -0.5018 
     22 N         -72.4465   29.9971  -73.1292 N.am      10 UNK        -0.4509 
     23 C         -71.9382   29.3144  -72.0958 C.2       10 UNK         0.4899 
     24 O         -71.6962   29.8078  -70.9924 O.2       10 UNK        -0.4839 
     25 CA        -71.6996   27.8108  -72.3388 C.3       9 UNK         0.0222 
     26 CB        -71.2090   27.0726  -71.0797 C.3       9 UNK        -0.1966 
     27 N         -72.9158   27.1571  -72.8333 N.am      9 UNK        -0.4218 
     28 C         -73.3083   27.1315  -74.1120 C.2       9 UNK         0.5020 
     29 O         -72.6790   27.6668  -75.0294 O.2       9 UNK        -0.5274 
     30 CA        -74.6599   26.4592  -74.3964 C.3       8 UNK         0.0270 
     31 CB        -75.8000   27.4781  -74.2543 C.3       8 UNK        -0.1976 
     32 N         -74.7126   25.8795  -75.7375 N.am      8 UNK        -0.4313 
     33 C         -74.0234   24.8043  -76.1428 C.2       8 UNK         0.5041 
     34 O         -73.2666   24.1641  -75.4109 O.2       8 UNK        -0.5577 
     35 CA        -74.2229   24.3370  -77.5965 C.3       7 UNK         0.0284 
     36 CB        -74.9636   22.9882  -77.6348 C.3       7 UNK        -0.1958 
     37 N         -74.9727   25.3063  -78.3995 N.am      7 UNK        -0.4454 
     38 C         -74.4187   26.2319  -79.1957 C.2       7 UNK         0.5089 
     39 O         -73.2052   26.3478  -79.3681 O.2       7 UNK        -0.5125 
     40 CA        -75.3721   27.1916  -79.9353 C.3       6 UNK         0.0408 
     41 CB        -75.5931   26.7148  -81.3797 C.3       6 UNK        -0.1791 
     42 N         -76.6730   27.3473  -79.2787 N.am      6 UNK        -0.4762 
     43 C         -76.8726   27.9804  -78.1129 C.2       6 UNK         0.5007 
     44 O         -75.9812   28.5639  -77.4996 O.2       6 UNK        -0.5032 
     45 CA        -78.2922   27.9116  -77.5097 C.3       5 UNK         0.0783 
     46 C46       -79.0812   29.2008  -77.8404 C.3       11 UNK        -0.0857 
     47 S47       -80.7539   29.1966  -77.1102 S.3       11 UNK        -0.2512 
     48 C48       -80.6885   30.6232  -75.9828 C.3       11 UNK         0.0225 
     49 N         -79.0230   26.6997  -77.9114 N.am      5 UNK        -0.4615 
     50 C         -78.6583   25.4486  -77.6119 C.2       4 UNK         0.5053 
     51 O         -77.6198   25.1608  -77.0127 O.2       4 UNK        -0.5105 
     52 CA        -79.5690   24.3297  -78.1194 C.3       4 UNK         0.0263 
     53 CB        -79.1428   23.8752  -79.5262 C.3       4 UNK        -0.1981 
     54 N         -79.4682   23.2134  -77.1884 N.am      4 UNK        -0.4224 
     55 C         -80.4546   22.3660  -76.8752 C.2       3 UNK         0.4895 
     56 O         -81.5600   22.3738  -77.4189 O.2       3 UNK        -0.5091 
     57 CA        -80.1740   21.3286  -75.7691 C.3       3 UNK         0.0250 
     58 CB        -79.9148   19.9451  -76.3888 C.3       3 UNK        -0.1996 
     59 N         -79.0558   21.6700  -74.8806 N.am      3 UNK        -0.4254 
     60 C         -79.0350   22.7072  -74.0319 C.2       2 UNK         0.5004 
     61 O         -79.9681   23.5032  -73.8981 O.2       2 UNK        -0.5226 
     62 CA        -77.7493   22.8874  -73.2133 C.3       2 UNK         0.0269 
     63 CB        -76.5283   23.1267  -74.1212 C.3       2 UNK        -0.1926 
     64 N         -77.9106   24.0227  -72.3094 N.am      2 UNK        -0.4687 
     65 C         -77.2713   24.1992  -71.1495 C.2       1 UNK         0.5165 
     66 O         -76.4765   23.3744  -70.6889 O.2       1 UNK        -0.5079 
     67 H67       -73.4483   25.8648  -68.6991 H         1 UNK         0.0900 
     68 H68       -74.7634   26.4538  -67.6806 H         1 UNK         0.0900 
     69 H69       -73.9175   27.5680  -68.7551 H         1 UNK         0.0900 
     70 H70       -76.7159   25.7433  -68.4603 H         1 UNK         0.2959 
     71 H71       -78.4258   25.2268  -69.7023 H         1 UNK         0.1079 
     72 H72       -77.8465   27.6196  -70.7077 H         1 UNK         0.0837 
     73 H73       -77.4507   26.7505  -72.1534 H         1 UNK         0.0837 
     74 H74       -81.3820   28.4647  -71.4684 H         1 UNK         0.0685 
     75 H75       -79.9866   28.7391  -70.4617 H         1 UNK         0.0685 
     76 H76       -81.3446   28.9953  -73.8999 H         1 UNK         0.1434 
     77 H77       -78.2586   31.6430  -75.2628 H         1 UNK         0.1329 
     78 H78       -77.9856   29.8452  -71.3807 H         1 UNK         0.1335 
     79 H79       -76.2348   31.8979  -74.0185 H         1 UNK         0.0680 
     80 H80       -76.8707   32.4504  -72.4811 H         1 UNK         0.0680 
     81 H81       -73.5931   31.7063  -71.1033 H         1 UNK         0.1032 
     82 H82       -74.3658   32.7440  -72.2647 H         1 UNK         0.1032 
     83 H83       -73.2692   31.5619  -74.1421 H         1 UNK         0.0461 
     84 H84       -71.1313   34.3426  -72.8903 H         1 UNK         0.3453 
     85 H85       -72.8478   34.0474  -72.8687 H         1 UNK         0.3453 
     86 H86       -72.5819   29.4888  -73.9955 H         1 UNK         0.2984 
     87 H87       -70.9155   27.7262  -73.0940 H         1 UNK         0.0554 
     88 H88       -71.0337   26.0158  -71.2810 H         1 UNK         0.0847 
     89 H89       -71.9297   27.1444  -70.2658 H         1 UNK         0.0847 
     90 H90       -70.2691   27.4941  -70.7211 H         1 UNK         0.0847 
     91 H91       -73.5589   26.7949  -72.1279 H         1 UNK         0.3141 
     92 H92       -74.8136   25.6566  -73.6722 H         1 UNK         0.0743 
     93 H93       -75.8332   27.8740  -73.2401 H         1 UNK         0.0784 
     94 H94       -75.6686   28.3317  -74.9193 H         1 UNK         0.0784 
     95 H95       -76.7705   27.0280  -74.4642 H         1 UNK         0.0784 
     96 H96       -75.2776   26.3678  -76.4165 H         1 UNK         0.3213 
     97 H97       -73.2298   24.1875  -78.0256 H         1 UNK         0.0855 
     98 H98       -74.4262   22.2304  -77.0630 H         1 UNK         0.0814 
     99 H99       -75.0568   22.6167  -78.6554 H         1 UNK         0.0814 
    100 H100      -75.9660   23.0631  -77.2135 H         1 UNK         0.0814 
    101 H101      -75.9786   25.3023  -78.2725 H         1 UNK         0.3105 
    102 H102      -74.8902   28.1711  -79.9699 H         1 UNK         0.0547 
    103 H103      -74.6434   26.6174  -81.9077 H         1 UNK         0.0837 
    104 H104      -76.0852   25.7420  -81.4144 H         1 UNK         0.0837 
    105 H105      -76.2025   27.4215  -81.9433 H         1 UNK         0.0837 
    106 H106      -77.4645   26.9019  -79.7203 H         1 UNK         0.3020 
    107 H107      -78.1670   27.8659  -76.4250 H         1 UNK         0.1245 
    108 H108      -78.5359   30.0797  -77.4909 H         1 UNK         0.0781 
    109 H109      -79.1870   29.3203  -78.9205 H         1 UNK         0.0781 
    110 H110      -81.7084   30.8847  -75.6971 H         1 UNK         0.0836 
    111 H111      -80.2968   31.4915  -76.5152 H         1 UNK         0.0836 
    112 H112      -79.8917   26.8554  -78.4028 H         1 UNK         0.3022 
    113 H113      -80.5967   24.6990  -78.1444 H         1 UNK         0.0747 
    114 H114      -79.7831   23.0724  -79.8924 H         1 UNK         0.0793 
    115 H115      -79.2110   24.6948  -80.2425 H         1 UNK         0.0793 
    116 H116      -78.1138   23.5125  -79.5381 H         1 UNK         0.0793 
    117 H117      -78.6055   23.1875  -76.6608 H         1 UNK         0.3047 
    118 H118      -81.0757   21.2648  -75.1561 H         1 UNK         0.0822 
    119 H119      -79.8075   19.1785  -75.6210 H         1 UNK         0.0807 
    120 H120      -79.0117   19.9394  -77.0005 H         1 UNK         0.0807 
    121 H121      -80.7439   19.6425  -77.0303 H         1 UNK         0.0807 
    122 H122      -78.2500   21.0626  -74.9245 H         1 UNK         0.2946 
    123 H123      -77.5993   21.9777  -72.6271 H         1 UNK         0.1144 
    124 H124      -75.6200   23.2763  -73.5371 H         1 UNK         0.0793 
    125 H125      -76.6691   24.0079  -74.7472 H         1 UNK         0.0793 
    126 H126      -76.3419   22.2792  -74.7810 H         1 UNK         0.0793 
    127 H127      -78.6268   24.6854  -72.5881 H         1 UNK         0.2896 
@<TRIPOS>BOND
     1    1    2 1    
     2    1   67 1    
     3    1   68 1    
     4    1   69 1    
     5    2    3 2    
     6    2    4 am   BACKBONE|DICT|INTERRES
     7    4    5 1    
     8    4   70 1    
     9    5    6 1    
    10    5   65 1    
    11    5   71 1    
    12    6    7 1    
    13    6   72 1    
    14    6   73 1    
    15    7    8 1    
    16    8    9 1    
    17    8   74 1    
    18    8   75 1    
    19    9   10 ar   
    20    9   14 ar   
    21   10   11 ar   
    22   10   76 1    
    23   11   12 ar   
    24   11   48 1    
    25   12   13 ar   
    26   12   77 1    
    27   13   14 ar   
    28   13   15 1    
    29   14   78 1    
    30   15   16 1    
    31   15   79 1    
    32   15   80 1    
    33   16   17 1    
    34   17   18 1    
    35   17   81 1    
    36   17   82 1    
    37   18   19 1    
    38   18   22 1    
    39   18   83 1    
    40   19   20 am   BACKBONE|DICT|INTERRES
    41   19   21 2    
    42   20   84 1    
    43   20   85 1    
    44   22   23 am   BACKBONE|DICT|INTERRES
    45   22   86 1    
    46   23   24 2    
    47   23   25 1    
    48   25   26 1    
    49   25   27 1    
    50   25   87 1    
    51   26   88 1    
    52   26   89 1    
    53   26   90 1    
    54   27   28 am   BACKBONE|DICT|INTERRES
    55   27   91 1    
    56   28   29 2    
    57   28   30 1    
    58   30   31 1    
    59   30   32 1    
    60   30   92 1    
    61   31   93 1    
    62   31   94 1    
    63   31   95 1    
    64   32   33 am   BACKBONE|DICT|INTERRES
    65   32   96 1    
    66   33   34 2    
    67   33   35 1    
    68   35   36 1    
    69   35   37 1    
    70   35   97 1    
    71   36   98 1    
    72   36   99 1    
    73   36  100 1    
    74   37   38 am   BACKBONE|DICT|INTERRES
    75   37  101 1    
    76   38   39 2    
    77   38   40 1    
    78   40   41 1    
    79   40   42 1    
    80   40  102 1    
    81   41  103 1    
    82   41  104 1    
    83   41  105 1    
    84   42   43 am   BACKBONE|DICT|INTERRES
    85   42  106 1    
    86   43   44 2    
    87   43   45 1    
    88   45   46 1    
    89   45   49 1    
    90   45  107 1    
    91   46   47 1    
    92   46  108 1    
    93   46  109 1    
    94   47   48 1    
    95   48  110 1    
    96   48  111 1    
    97   49   50 am   BACKBONE|DICT|INTERRES
    98   49  112 1    
    99   50   51 2    
   100   50   52 1    
   101   52   53 1    
   102   52   54 1    
   103   52  113 1    
   104   53  114 1    
   105   53  115 1    
   106   53  116 1    
   107   54   55 am   BACKBONE|DICT|INTERRES
   108   54  117 1    
   109   55   56 2    
   110   55   57 1    
   111   57   58 1    
   112   57   59 1    
   113   57  118 1    
   114   58  119 1    
   115   58  120 1    
   116   58  121 1    
   117   59   60 am   BACKBONE|DICT|INTERRES
   118   59  122 1    
   119   60   61 2    
   120   60   62 1    
   121   62   63 1    
   122   62   64 1    
   123   62  123 1    
   124   63  124 1    
   125   63  125 1    
   126   63  126 1    
   127   64   65 am   BACKBONE|DICT|INTERRES
   128   64  127 1    
   129   65   66 2    
@<TRIPOS>SUBSTRUCTURE
     1 UNK         1 GROUP             0       ****    0 ROOT    
