@<TRIPOS>MOLECULE
3R135
127   129    1
SMALL
USER_CHARGES


@<TRIPOS>ATOM
      1 CA        -76.0337   29.4201  -75.9951 C.3       0 UNK        -0.1998 
      2 C         -76.8345   28.3218  -75.3146 C.2       0 UNK         0.4909 
      3 O         -76.3253   27.2171  -75.1351 O.2       0 UNK        -0.5240 
      4 N         -78.0928   28.5984  -74.9442 N.am      1 UNK        -0.4739 
      5 CA        -78.9898   27.6133  -74.3255 C.3       1 UNK         0.0864 
      6 C6        -80.2665   28.2741  -73.7512 C.3       11 UNK        -0.0881 
      7 S7        -81.0063   27.2892  -72.4046 S.3       11 UNK        -0.2682 
      8 C8        -80.3718   28.1409  -70.9208 C.3       11 UNK         0.0289 
      9 C9        -78.8604   28.0092  -70.7797 C.ar      11 UNK        -0.0687 
     10 C10       -78.2904   26.7689  -70.4789 C.ar      11 UNK        -0.0823 
     11 C11       -76.9026   26.6285  -70.3729 C.ar      11 UNK        -0.0830 
     12 C12       -76.0839   27.7488  -70.5428 C.ar      11 UNK        -0.1021 
     13 C13       -76.6432   29.0002  -70.8188 C.ar      11 UNK        -0.0753 
     14 C14       -78.0311   29.1235  -70.9425 C.ar      11 UNK        -0.0933 
     15 C15       -75.7508   30.2222  -70.9679 C.3       11 UNK         0.0166 
     16 S16       -75.5088   30.6522  -72.7155 S.3       11 UNK        -0.2615 
     17 C17       -74.3902   32.0905  -72.5758 C.3       11 UNK        -0.0865 
     18 CA        -72.9536   31.8339  -73.1154 C.3       10 UNK         0.0862 
     19 C         -72.1266   30.8408  -72.2558 C.2       10 UNK         0.5551 
     20 N         -71.9205   31.1424  -70.9809 N.am      10 UNK        -0.7319 
     21 O         -71.6612   29.8066  -72.7318 O.2       10 UNK        -0.5018 
     22 N         -72.9429   31.4426  -74.5282 N.am      10 UNK        -0.4509 
     23 C         -73.1319   32.2572  -75.5701 C.2       10 UNK         0.4899 
     24 O         -73.3752   33.4595  -75.4546 O.2       10 UNK        -0.4839 
     25 CA        -73.0594   31.6273  -76.9778 C.3       9 UNK         0.0222 
     26 CB        -72.5553   32.6238  -78.0435 C.3       9 UNK        -0.1966 
     27 N         -72.3039   30.3678  -77.0438 N.am      9 UNK        -0.4218 
     28 C         -71.0033   30.1674  -76.7887 C.2       9 UNK         0.5020 
     29 O         -70.2327   31.0519  -76.4111 O.2       9 UNK        -0.5274 
     30 CA        -70.4887   28.7249  -76.9857 C.3       8 UNK         0.0270 
     31 CB        -68.9673   28.6060  -76.7731 C.3       8 UNK        -0.1976 
     32 N         -71.1625   27.7496  -76.1207 N.am      8 UNK        -0.4313 
     33 C         -72.4167   27.3050  -76.2689 C.2       8 UNK         0.5041 
     34 O         -73.1810   27.7145  -77.1487 O.2       8 UNK        -0.5577 
     35 CA        -72.8916   26.2610  -75.2441 C.3       7 UNK         0.0284 
     36 CB        -73.1130   26.9078  -73.8659 C.3       7 UNK        -0.1958 
     37 N         -74.1441   25.6393  -75.6643 N.am      7 UNK        -0.4454 
     38 C         -74.2700   24.6605  -76.5663 C.2       7 UNK         0.5089 
     39 O         -73.3160   24.1033  -77.1142 O.2       7 UNK        -0.5125 
     40 CA        -75.7197   24.2260  -76.8760 C.3       6 UNK         0.0408 
     41 CB        -75.8028   23.0325  -77.8495 C.3       6 UNK        -0.1791 
     42 N         -76.5011   23.9562  -75.6602 N.am      6 UNK        -0.4762 
     43 C         -76.1941   23.0933  -74.6769 C.2       6 UNK         0.5007 
     44 O         -75.2351   22.3206  -74.7013 O.2       6 UNK        -0.5032 
     45 CA        -77.1384   23.0911  -73.4626 C.3       5 UNK         0.0783 
     46 C46       -77.0416   24.4058  -72.6523 C.3       11 UNK        -0.0857 
     47 S47       -75.5810   24.4933  -71.5674 S.3       11 UNK        -0.2512 
     48 C48       -76.2880   25.2663  -70.0751 C.3       11 UNK         0.0225 
     49 N         -78.5194   22.8434  -73.8788 N.am      5 UNK        -0.4615 
     50 C         -79.0366   21.6350  -74.1250 C.2       4 UNK         0.5053 
     51 O         -78.3788   20.5952  -74.0806 O.2       4 UNK        -0.5105 
     52 CA        -80.5405   21.5448  -74.4252 C.3       4 UNK         0.0263 
     53 CB        -81.3191   21.2742  -73.1218 C.3       4 UNK        -0.1981 
     54 N         -81.0890   22.7231  -75.1095 N.am      4 UNK        -0.4224 
     55 C         -82.2339   22.7044  -75.8119 C.2       3 UNK         0.4895 
     56 O         -82.9257   21.6956  -75.9600 O.2       3 UNK        -0.5091 
     57 CA        -82.7139   24.0188  -76.4589 C.3       3 UNK         0.0250 
     58 CB        -83.7449   24.7122  -75.5531 C.3       3 UNK        -0.1996 
     59 N         -81.6389   24.9625  -76.7615 N.am      3 UNK        -0.4254 
     60 C         -80.6542   24.7577  -77.6454 C.2       2 UNK         0.5004 
     61 O         -80.5957   23.7755  -78.3855 O.2       2 UNK        -0.5226 
     62 CA        -79.5294   25.8088  -77.7086 C.3       2 UNK         0.0269 
     63 CB        -79.6129   26.6091  -79.0187 C.3       2 UNK        -0.1926 
     64 N         -79.4542   26.7533  -76.5833 N.am      2 UNK        -0.4687 
     65 C         -79.3083   26.4443  -75.2849 C.2       1 UNK         0.5165 
     66 O         -79.3617   25.2920  -74.8531 O.2       1 UNK        -0.5079 
     67 H67       -76.5270   30.3891  -75.9243 H         1 UNK         0.0900 
     68 H68       -75.8874   29.1793  -77.0477 H         1 UNK         0.0900 
     69 H69       -75.0529   29.5036  -75.5290 H         1 UNK         0.0900 
     70 H70       -78.4703   29.5226  -75.0974 H         1 UNK         0.2959 
     71 H71       -78.4307   27.1869  -73.4901 H         1 UNK         0.1079 
     72 H72       -80.0333   29.2639  -73.3556 H         1 UNK         0.0837 
     73 H73       -81.0152   28.4388  -74.5284 H         1 UNK         0.0837 
     74 H74       -80.6724   29.1894  -70.9494 H         1 UNK         0.0685 
     75 H75       -80.8498   27.7117  -70.0391 H         1 UNK         0.0685 
     76 H76       -78.9329   25.9090  -70.3468 H         1 UNK         0.1434 
     77 H77       -75.0105   27.6443  -70.4610 H         1 UNK         0.1329 
     78 H78       -78.4619   30.0894  -71.1678 H         1 UNK         0.1335 
     79 H79       -76.1978   31.0684  -70.4439 H         1 UNK         0.0680 
     80 H80       -74.7799   30.0445  -70.5023 H         1 UNK         0.0680 
     81 H81       -74.3570   32.4386  -71.5424 H         1 UNK         0.1032 
     82 H82       -74.8428   32.9119  -73.1327 H         1 UNK         0.1032 
     83 H83       -72.4053   32.7760  -73.0528 H         1 UNK         0.0461 
     84 H84       -71.3806   30.5082  -70.4135 H         1 UNK         0.3453 
     85 H85       -72.2721   31.9966  -70.5783 H         1 UNK         0.3453 
     86 H86       -72.6913   30.4770  -74.6885 H         1 UNK         0.2984 
     87 H87       -74.0865   31.3686  -77.2376 H         1 UNK         0.0554 
     88 H88       -72.5331   32.1693  -79.0339 H         1 UNK         0.0847 
     89 H89       -71.5515   32.9848  -77.8169 H         1 UNK         0.0847 
     90 H90       -73.2066   33.4964  -78.1058 H         1 UNK         0.0847 
     91 H91       -72.8399   29.5332  -77.2829 H         1 UNK         0.3141 
     92 H92       -70.6953   28.4564  -78.0241 H         1 UNK         0.0743 
     93 H93       -68.6822   28.8477  -75.7482 H         1 UNK         0.0784 
     94 H94       -68.6124   27.5988  -76.9927 H         1 UNK         0.0784 
     95 H95       -68.4259   29.2870  -77.4314 H         1 UNK         0.0784 
     96 H96       -70.6200   27.4006  -75.3431 H         1 UNK         0.3213 
     97 H97       -72.1279   25.4853  -75.1552 H         1 UNK         0.0855 
     98 H98       -72.1784   27.2882  -73.4537 H         1 UNK         0.0814 
     99 H99       -73.5077   26.1883  -73.1485 H         1 UNK         0.0814 
    100 H100      -73.8133   27.7431  -73.9155 H         1 UNK         0.0814 
    101 H101      -74.9954   26.1110  -75.3548 H         1 UNK         0.3105 
    102 H102      -76.1910   25.0815  -77.3615 H         1 UNK         0.0547 
    103 H103      -75.3063   23.2636  -78.7926 H         1 UNK         0.0837 
    104 H104      -75.3244   22.1420  -77.4406 H         1 UNK         0.0837 
    105 H105      -76.8377   22.7811  -78.0813 H         1 UNK         0.0837 
    106 H106      -77.3066   24.5514  -75.5148 H         1 UNK         0.3020 
    107 H107      -76.8333   22.2687  -72.8104 H         1 UNK         0.1245 
    108 H108      -77.9294   24.4927  -72.0260 H         1 UNK         0.0781 
    109 H109      -77.0468   25.2864  -73.2953 H         1 UNK         0.0781 
    110 H110      -75.5011   25.3771  -69.3277 H         1 UNK         0.0836 
    111 H111      -77.0287   24.5949  -69.6379 H         1 UNK         0.0836 
    112 H112      -79.0862   23.6770  -73.9952 H         1 UNK         0.3022 
    113 H113      -80.6645   20.6821  -75.0839 H         1 UNK         0.0747 
    114 H114      -82.3673   21.0493  -73.3182 H         1 UNK         0.0793 
    115 H115      -80.9047   20.4186  -72.5866 H         1 UNK         0.0793 
    116 H116      -81.2813   22.1311  -72.4481 H         1 UNK         0.0793 
    117 H117      -80.5599   23.5864  -75.0631 H         1 UNK         0.3047 
    118 H118      -83.2027   23.7585  -77.4003 H         1 UNK         0.0822 
    119 H119      -84.1648   25.5967  -76.0327 H         1 UNK         0.0807 
    120 H120      -83.3053   25.0205  -74.6033 H         1 UNK         0.0807 
    121 H121      -84.5769   24.0442  -75.3255 H         1 UNK         0.0807 
    122 H122      -81.5957   25.7988  -76.1980 H         1 UNK         0.2946 
    123 H123      -78.5945   25.2460  -77.7168 H         1 UNK         0.1144 
    124 H124      -79.6351   25.9457  -79.8847 H         1 UNK         0.0793 
    125 H125      -78.7500   27.2642  -79.1405 H         1 UNK         0.0793 
    126 H126      -80.5124   27.2248  -79.0571 H         1 UNK         0.0793 
    127 H127      -79.3891   27.7298  -76.8326 H         1 UNK         0.2896 
@<TRIPOS>BOND
     1    1    2 1    
     2    1   67 1    
     3    1   68 1    
     4    1   69 1    
     5    2    3 2    
     6    2    4 am   BACKBONE|DICT|INTERRES
     7    4    5 1    
     8    4   70 1    
     9    5    6 1    
    10    5   65 1    
    11    5   71 1    
    12    6    7 1    
    13    6   72 1    
    14    6   73 1    
    15    7    8 1    
    16    8    9 1    
    17    8   74 1    
    18    8   75 1    
    19    9   10 ar   
    20    9   14 ar   
    21   10   11 ar   
    22   10   76 1    
    23   11   12 ar   
    24   11   48 1    
    25   12   13 ar   
    26   12   77 1    
    27   13   14 ar   
    28   13   15 1    
    29   14   78 1    
    30   15   16 1    
    31   15   79 1    
    32   15   80 1    
    33   16   17 1    
    34   17   18 1    
    35   17   81 1    
    36   17   82 1    
    37   18   19 1    
    38   18   22 1    
    39   18   83 1    
    40   19   20 am   BACKBONE|DICT|INTERRES
    41   19   21 2    
    42   20   84 1    
    43   20   85 1    
    44   22   23 am   BACKBONE|DICT|INTERRES
    45   22   86 1    
    46   23   24 2    
    47   23   25 1    
    48   25   26 1    
    49   25   27 1    
    50   25   87 1    
    51   26   88 1    
    52   26   89 1    
    53   26   90 1    
    54   27   28 am   BACKBONE|DICT|INTERRES
    55   27   91 1    
    56   28   29 2    
    57   28   30 1    
    58   30   31 1    
    59   30   32 1    
    60   30   92 1    
    61   31   93 1    
    62   31   94 1    
    63   31   95 1    
    64   32   33 am   BACKBONE|DICT|INTERRES
    65   32   96 1    
    66   33   34 2    
    67   33   35 1    
    68   35   36 1    
    69   35   37 1    
    70   35   97 1    
    71   36   98 1    
    72   36   99 1    
    73   36  100 1    
    74   37   38 am   BACKBONE|DICT|INTERRES
    75   37  101 1    
    76   38   39 2    
    77   38   40 1    
    78   40   41 1    
    79   40   42 1    
    80   40  102 1    
    81   41  103 1    
    82   41  104 1    
    83   41  105 1    
    84   42   43 am   BACKBONE|DICT|INTERRES
    85   42  106 1    
    86   43   44 2    
    87   43   45 1    
    88   45   46 1    
    89   45   49 1    
    90   45  107 1    
    91   46   47 1    
    92   46  108 1    
    93   46  109 1    
    94   47   48 1    
    95   48  110 1    
    96   48  111 1    
    97   49   50 am   BACKBONE|DICT|INTERRES
    98   49  112 1    
    99   50   51 2    
   100   50   52 1    
   101   52   53 1    
   102   52   54 1    
   103   52  113 1    
   104   53  114 1    
   105   53  115 1    
   106   53  116 1    
   107   54   55 am   BACKBONE|DICT|INTERRES
   108   54  117 1    
   109   55   56 2    
   110   55   57 1    
   111   57   58 1    
   112   57   59 1    
   113   57  118 1    
   114   58  119 1    
   115   58  120 1    
   116   58  121 1    
   117   59   60 am   BACKBONE|DICT|INTERRES
   118   59  122 1    
   119   60   61 2    
   120   60   62 1    
   121   62   63 1    
   122   62   64 1    
   123   62  123 1    
   124   63  124 1    
   125   63  125 1    
   126   63  126 1    
   127   64   65 am   BACKBONE|DICT|INTERRES
   128   64  127 1    
   129   65   66 2    
@<TRIPOS>SUBSTRUCTURE
     1 UNK         1 GROUP             0       ****    0 ROOT    
