@<TRIPOS>MOLECULE
3R135
127   129    1
SMALL
USER_CHARGES


@<TRIPOS>ATOM
      1 CA        -86.4822   28.5033  -75.7672 C.3       0 UNK        -0.1998 
      2 C         -84.9785   28.3944  -75.5623 C.2       0 UNK         0.4909 
      3 O         -84.2527   28.0838  -76.5077 O.2       0 UNK        -0.5240 
      4 N         -84.5043   28.6558  -74.3374 N.am      1 UNK        -0.4739 
      5 CA        -83.0970   28.5321  -73.9445 C.3       1 UNK         0.0864 
      6 C6        -82.8205   29.3133  -72.6355 C.3       11 UNK        -0.0881 
      7 S7        -81.0480   29.6820  -72.4181 S.3       11 UNK        -0.2682 
      8 C8        -80.6895   28.8337  -70.8426 C.3       11 UNK         0.0289 
      9 C9        -79.1985   28.5899  -70.6297 C.ar      11 UNK        -0.0687 
     10 C10       -78.7550   27.3301  -70.2099 C.ar      11 UNK        -0.0823 
     11 C11       -77.3901   27.0734  -70.0534 C.ar      11 UNK        -0.0830 
     12 C12       -76.4681   28.1003  -70.2725 C.ar      11 UNK        -0.1021 
     13 C13       -76.8917   29.3477  -70.7313 C.ar      11 UNK        -0.0753 
     14 C14       -78.2583   29.5983  -70.8792 C.ar      11 UNK        -0.0933 
     15 C15       -75.8612   30.3800  -71.1579 C.3       11 UNK         0.0166 
     16 S16       -75.2277   29.9625  -72.8149 S.3       11 UNK        -0.2615 
     17 C17       -74.0616   31.3301  -73.1126 C.3       11 UNK        -0.0865 
     18 CA        -73.0419   31.0068  -74.2384 C.3       10 UNK         0.0862 
     19 C         -72.2306   32.2810  -74.6194 C.2       10 UNK         0.5551 
     20 N         -70.9237   32.3343  -74.3912 N.am      10 UNK        -0.7319 
     21 O         -72.8018   33.2393  -75.1339 O.2       10 UNK        -0.5018 
     22 N         -72.2227   29.8244  -73.9129 N.am      10 UNK        -0.4509 
     23 C         -71.5027   29.1178  -74.7950 C.2       10 UNK         0.4899 
     24 O         -71.4633   29.3666  -75.9999 O.2       10 UNK        -0.4839 
     25 CA        -70.6541   27.9572  -74.2514 C.3       9 UNK         0.0222 
     26 CB        -70.6810   27.8037  -72.7146 C.3       9 UNK        -0.1966 
     27 N         -71.0956   26.7112  -74.8708 N.am      9 UNK        -0.4218 
     28 C         -70.3023   25.6921  -75.2178 C.2       9 UNK         0.5020 
     29 O         -69.0741   25.7139  -75.1185 O.2       9 UNK        -0.5274 
     30 CA        -70.9856   24.4107  -75.7268 C.3       8 UNK         0.0270 
     31 CB        -71.4144   23.5313  -74.5407 C.3       8 UNK        -0.1976 
     32 N         -72.1395   24.6497  -76.5982 N.am      8 UNK        -0.4313 
     33 C         -72.0550   25.0996  -77.8586 C.2       8 UNK         0.5041 
     34 O         -70.9943   25.3963  -78.4104 O.2       8 UNK        -0.5577 
     35 CA        -73.3695   25.2164  -78.6494 C.3       7 UNK         0.0284 
     36 CB        -73.8343   23.8369  -79.1444 C.3       7 UNK        -0.1958 
     37 N         -74.4336   25.8418  -77.8656 N.am      7 UNK        -0.4454 
     38 C         -74.4913   27.1495  -77.5784 C.2       7 UNK         0.5089 
     39 O         -73.7226   27.9874  -78.0487 O.2       7 UNK        -0.5125 
     40 CA        -75.5807   27.6011  -76.5880 C.3       6 UNK         0.0408 
     41 CB        -76.8723   27.9711  -77.3321 C.3       6 UNK        -0.1791 
     42 N         -75.8794   26.6032  -75.5570 N.am      6 UNK        -0.4762 
     43 C         -74.9952   26.1623  -74.6492 C.2       6 UNK         0.5007 
     44 O         -73.8334   26.5560  -74.5761 O.2       6 UNK        -0.5032 
     45 CA        -75.4775   25.0727  -73.6767 C.3       5 UNK         0.0783 
     46 C46       -76.2474   25.7380  -72.5201 C.3       11 UNK        -0.0857 
     47 S47       -76.8768   24.5990  -71.2390 S.3       11 UNK        -0.2512 
     48 C48       -76.8928   25.6650  -69.7485 C.3       11 UNK         0.0225 
     49 N         -76.2399   24.0374  -74.3763 N.am      5 UNK        -0.4615 
     50 C         -75.7023   23.1962  -75.2707 C.2       4 UNK         0.5053 
     51 O         -74.5097   23.1925  -75.5765 O.2       4 UNK        -0.5105 
     52 CA        -76.6662   22.2338  -75.9810 C.3       4 UNK         0.0263 
     53 CB        -77.0143   21.0426  -75.0743 C.3       4 UNK        -0.1981 
     54 N         -77.8946   22.8994  -76.4199 N.am      4 UNK        -0.4224 
     55 C         -77.9396   23.8828  -77.3308 C.2       3 UNK         0.4895 
     56 O         -76.9545   24.3042  -77.9359 O.2       3 UNK        -0.5091 
     57 CA        -79.3103   24.5317  -77.5833 C.3       3 UNK         0.0250 
     58 CB        -80.0800   23.7605  -78.6673 C.3       3 UNK        -0.1996 
     59 N         -80.1397   24.6487  -76.3784 N.am      3 UNK        -0.4254 
     60 C         -79.8122   25.3654  -75.2943 C.2       2 UNK         0.5004 
     61 O         -78.7544   25.9880  -75.1742 O.2       2 UNK        -0.5226 
     62 CA        -80.8446   25.4131  -74.1653 C.3       2 UNK         0.0269 
     63 CB        -80.2115   25.0978  -72.7995 C.3       2 UNK        -0.1926 
     64 N         -81.4171   26.7541  -74.1478 N.am      2 UNK        -0.4687 
     65 C         -82.6846   27.0464  -73.8373 C.2       1 UNK         0.5165 
     66 O         -83.5080   26.2051  -73.4655 O.2       1 UNK        -0.5079 
     67 H67       -86.7037   29.2431  -76.5360 H         1 UNK         0.0900 
     68 H68       -86.9981   28.7989  -74.8538 H         1 UNK         0.0900 
     69 H69       -86.8868   27.5444  -76.0899 H         1 UNK         0.0900 
     70 H70       -85.1512   28.8728  -73.5926 H         1 UNK         0.2959 
     71 H71       -82.5060   28.9864  -74.7438 H         1 UNK         0.1079 
     72 H72       -83.3350   30.2754  -72.6623 H         1 UNK         0.0837 
     73 H73       -83.2221   28.7878  -71.7668 H         1 UNK         0.0837 
     74 H74       -81.2258   27.8833  -70.8276 H         1 UNK         0.0685 
     75 H75       -81.0791   29.4288  -70.0158 H         1 UNK         0.0685 
     76 H76       -79.4667   26.5321  -70.0475 H         1 UNK         0.1434 
     77 H77       -75.4088   27.9029  -70.1778 H         1 UNK         0.1329 
     78 H78       -78.5875   30.5645  -71.2359 H         1 UNK         0.1335 
     79 H79       -75.0379   30.4047  -70.4422 H         1 UNK         0.0680 
     80 H80       -76.2989   31.3794  -71.1733 H         1 UNK         0.0680 
     81 H81       -74.6521   32.2127  -73.3673 H         1 UNK         0.1032 
     82 H82       -73.5386   31.5700  -72.1850 H         1 UNK         0.1032 
     83 H83       -73.6175   30.7518  -75.1307 H         1 UNK         0.0461 
     84 H84       -70.4466   31.5530  -73.9719 H         1 UNK         0.3453 
     85 H85       -70.4105   33.1638  -74.6451 H         1 UNK         0.3453 
     86 H86       -72.2136   29.5451  -72.9437 H         1 UNK         0.2984 
     87 H87       -69.6268   28.1701  -74.5536 H         1 UNK         0.0554 
     88 H88       -70.0143   27.0038  -72.3920 H         1 UNK         0.0847 
     89 H89       -71.6798   27.5634  -72.3468 H         1 UNK         0.0847 
     90 H90       -70.3439   28.7132  -72.2157 H         1 UNK         0.0847 
     91 H91       -72.1069   26.6122  -74.9712 H         1 UNK         0.3141 
     92 H92       -70.2441   23.8532  -76.3032 H         1 UNK         0.0743 
     93 H93       -70.5686   23.3164  -73.8862 H         1 UNK         0.0784 
     94 H94       -71.8127   22.5747  -74.8798 H         1 UNK         0.0784 
     95 H95       -72.1810   24.0172  -73.9360 H         1 UNK         0.0784 
     96 H96       -73.0482   24.3742  -76.2360 H         1 UNK         0.3213 
     97 H97       -73.1772   25.8399  -79.5254 H         1 UNK         0.0855 
     98 H98       -74.0736   23.1673  -78.3175 H         1 UNK         0.0814 
     99 H99       -73.0595   23.3552  -79.7422 H         1 UNK         0.0814 
    100 H100      -74.7226   23.9210  -79.7708 H         1 UNK         0.0814 
    101 H101      -75.1697   25.2361  -77.5170 H         1 UNK         0.3105 
    102 H102      -75.2129   28.4945  -76.0783 H         1 UNK         0.0547 
    103 H103      -77.6377   28.3323  -76.6449 H         1 UNK         0.0837 
    104 H104      -76.6888   28.7618  -78.0606 H         1 UNK         0.0837 
    105 H105      -77.2819   27.1182  -77.8729 H         1 UNK         0.0837 
    106 H106      -76.8347   26.2559  -75.5162 H         1 UNK         0.3020 
    107 H107      -74.5889   24.5961  -73.2562 H         1 UNK         0.1245 
    108 H108      -77.0883   26.3265  -72.8936 H         1 UNK         0.0781 
    109 H109      -75.5662   26.4408  -72.0420 H         1 UNK         0.0781 
    110 H110      -77.5232   25.2053  -68.9861 H         1 UNK         0.0836 
    111 H111      -75.8860   25.7011  -69.3293 H         1 UNK         0.0836 
    112 H112      -77.2326   24.0112  -74.1989 H         1 UNK         0.3022 
    113 H113      -76.1575   21.8513  -76.8687 H         1 UNK         0.0747 
    114 H114      -77.6315   20.3125  -75.5983 H         1 UNK         0.0793 
    115 H115      -76.1107   20.5255  -74.7482 H         1 UNK         0.0793 
    116 H116      -77.5515   21.3558  -74.1781 H         1 UNK         0.0793 
    117 H117      -78.7563   22.6145  -75.9783 H         1 UNK         0.3047 
    118 H118      -79.1279   25.5426  -77.9532 H         1 UNK         0.0822 
    119 H119      -81.0093   24.2662  -78.9304 H         1 UNK         0.0807 
    120 H120      -80.3268   22.7474  -78.3473 H         1 UNK         0.0807 
    121 H121      -79.4891   23.6787  -79.5809 H         1 UNK         0.0807 
    122 H122      -81.0361   24.1836  -76.4039 H         1 UNK         0.2946 
    123 H123      -81.6244   24.6745  -74.3664 H         1 UNK         0.1144 
    124 H124      -80.9587   25.0982  -72.0060 H         1 UNK         0.0793 
    125 H125      -79.4478   25.8296  -72.5374 H         1 UNK         0.0793 
    126 H126      -79.7380   24.1154  -72.8016 H         1 UNK         0.0793 
    127 H127      -80.7888   27.4939  -74.4343 H         1 UNK         0.2896 
@<TRIPOS>BOND
     1    1    2 1    
     2    1   67 1    
     3    1   68 1    
     4    1   69 1    
     5    2    3 2    
     6    2    4 am   BACKBONE|DICT|INTERRES
     7    4    5 1    
     8    4   70 1    
     9    5    6 1    
    10    5   65 1    
    11    5   71 1    
    12    6    7 1    
    13    6   72 1    
    14    6   73 1    
    15    7    8 1    
    16    8    9 1    
    17    8   74 1    
    18    8   75 1    
    19    9   10 ar   
    20    9   14 ar   
    21   10   11 ar   
    22   10   76 1    
    23   11   12 ar   
    24   11   48 1    
    25   12   13 ar   
    26   12   77 1    
    27   13   14 ar   
    28   13   15 1    
    29   14   78 1    
    30   15   16 1    
    31   15   79 1    
    32   15   80 1    
    33   16   17 1    
    34   17   18 1    
    35   17   81 1    
    36   17   82 1    
    37   18   19 1    
    38   18   22 1    
    39   18   83 1    
    40   19   20 am   BACKBONE|DICT|INTERRES
    41   19   21 2    
    42   20   84 1    
    43   20   85 1    
    44   22   23 am   BACKBONE|DICT|INTERRES
    45   22   86 1    
    46   23   24 2    
    47   23   25 1    
    48   25   26 1    
    49   25   27 1    
    50   25   87 1    
    51   26   88 1    
    52   26   89 1    
    53   26   90 1    
    54   27   28 am   BACKBONE|DICT|INTERRES
    55   27   91 1    
    56   28   29 2    
    57   28   30 1    
    58   30   31 1    
    59   30   32 1    
    60   30   92 1    
    61   31   93 1    
    62   31   94 1    
    63   31   95 1    
    64   32   33 am   BACKBONE|DICT|INTERRES
    65   32   96 1    
    66   33   34 2    
    67   33   35 1    
    68   35   36 1    
    69   35   37 1    
    70   35   97 1    
    71   36   98 1    
    72   36   99 1    
    73   36  100 1    
    74   37   38 am   BACKBONE|DICT|INTERRES
    75   37  101 1    
    76   38   39 2    
    77   38   40 1    
    78   40   41 1    
    79   40   42 1    
    80   40  102 1    
    81   41  103 1    
    82   41  104 1    
    83   41  105 1    
    84   42   43 am   BACKBONE|DICT|INTERRES
    85   42  106 1    
    86   43   44 2    
    87   43   45 1    
    88   45   46 1    
    89   45   49 1    
    90   45  107 1    
    91   46   47 1    
    92   46  108 1    
    93   46  109 1    
    94   47   48 1    
    95   48  110 1    
    96   48  111 1    
    97   49   50 am   BACKBONE|DICT|INTERRES
    98   49  112 1    
    99   50   51 2    
   100   50   52 1    
   101   52   53 1    
   102   52   54 1    
   103   52  113 1    
   104   53  114 1    
   105   53  115 1    
   106   53  116 1    
   107   54   55 am   BACKBONE|DICT|INTERRES
   108   54  117 1    
   109   55   56 2    
   110   55   57 1    
   111   57   58 1    
   112   57   59 1    
   113   57  118 1    
   114   58  119 1    
   115   58  120 1    
   116   58  121 1    
   117   59   60 am   BACKBONE|DICT|INTERRES
   118   59  122 1    
   119   60   61 2    
   120   60   62 1    
   121   62   63 1    
   122   62   64 1    
   123   62  123 1    
   124   63  124 1    
   125   63  125 1    
   126   63  126 1    
   127   64   65 am   BACKBONE|DICT|INTERRES
   128   64  127 1    
   129   65   66 2    
@<TRIPOS>SUBSTRUCTURE
     1 UNK         1 GROUP             0       ****    0 ROOT    
