@<TRIPOS>MOLECULE
3R135
127   129    1
SMALL
USER_CHARGES


@<TRIPOS>ATOM
      1 CA        -83.7583   25.3282  -75.6119 C.3       0 UNK        -0.1998 
      2 C         -82.6014   26.2962  -75.4158 C.2       0 UNK         0.4909 
      3 O         -81.4912   25.8573  -75.1247 O.2       0 UNK        -0.5240 
      4 N         -82.8563   27.5986  -75.6142 N.am      1 UNK        -0.4739 
      5 CA        -81.9717   28.7643  -75.4157 C.3       1 UNK         0.0864 
      6 C6        -81.9045   29.2454  -73.9340 C.3       11 UNK        -0.0881 
      7 S7        -80.9714   28.1749  -72.7820 S.3       11 UNK        -0.2682 
      8 C8        -79.7441   29.3415  -72.0900 C.3       11 UNK         0.0289 
      9 C9        -78.5743   28.6762  -71.3587 C.ar      11 UNK        -0.0687 
     10 C10       -78.7163   27.4631  -70.6707 C.ar      11 UNK        -0.0823 
     11 C11       -77.6183   26.8573  -70.0504 C.ar      11 UNK        -0.0830 
     12 C12       -76.3718   27.4876  -70.0906 C.ar      11 UNK        -0.1021 
     13 C13       -76.2182   28.7106  -70.7497 C.ar      11 UNK        -0.0753 
     14 C14       -77.3191   29.2946  -71.3842 C.ar      11 UNK        -0.0933 
     15 C15       -74.8631   29.4012  -70.7743 C.3       11 UNK         0.0166 
     16 S16       -73.8038   28.6982  -72.0695 S.3       11 UNK        -0.2615 
     17 C17       -72.3349   29.7795  -71.9787 C.3       11 UNK        -0.0865 
     18 CA        -72.2864   30.8497  -73.1036 C.3       10 UNK         0.0862 
     19 C         -70.9633   31.6653  -73.0141 C.2       10 UNK         0.5551 
     20 N         -70.0324   31.5241  -73.9504 N.am      10 UNK        -0.7319 
     21 O         -70.7814   32.4358  -72.0748 O.2       10 UNK        -0.5018 
     22 N         -72.5673   30.2558  -74.4192 N.am      10 UNK        -0.4509 
     23 C         -72.8201   30.9136  -75.5568 C.2       10 UNK         0.4899 
     24 O         -72.8432   32.1418  -75.6453 O.2       10 UNK        -0.4839 
     25 CA        -73.1350   30.0549  -76.7995 C.3       9 UNK         0.0222 
     26 CB        -72.5257   30.6402  -78.0912 C.3       9 UNK        -0.1966 
     27 N         -72.8014   28.6303  -76.6434 N.am      9 UNK        -0.4218 
     28 C         -71.5810   28.0797  -76.5163 C.2       9 UNK         0.5020 
     29 O         -70.5359   28.7311  -76.5419 O.2       9 UNK        -0.5274 
     30 CA        -71.4936   26.5588  -76.2647 C.3       8 UNK         0.0270 
     31 CB        -70.9410   26.2829  -74.8550 C.3       8 UNK        -0.1976 
     32 N         -72.7729   25.8608  -76.4027 N.am      8 UNK        -0.4313 
     33 C         -73.4031   25.6072  -77.5582 C.2       8 UNK         0.5041 
     34 O         -72.9115   25.8250  -78.6657 O.2       8 UNK        -0.5577 
     35 CA        -74.8409   25.0593  -77.4623 C.3       7 UNK         0.0284 
     36 CB        -74.8732   23.5584  -77.7875 C.3       7 UNK        -0.1958 
     37 N         -75.4793   25.2986  -76.1599 N.am      7 UNK        -0.4454 
     38 C         -75.7696   26.5148  -75.6694 C.2       7 UNK         0.5089 
     39 O         -75.5219   27.5584  -76.2737 O.2       7 UNK        -0.5125 
     40 CA        -76.4143   26.6042  -74.2782 C.3       6 UNK         0.0408 
     41 CB        -77.8435   27.1359  -74.3856 C.3       6 UNK        -0.1791 
     42 N         -76.4453   25.3308  -73.5649 N.am      6 UNK        -0.4762 
     43 C         -75.4140   24.8133  -72.8857 C.2       6 UNK         0.5007 
     44 O         -74.2932   25.3214  -72.8540 O.2       6 UNK        -0.5032 
     45 CA        -75.6574   23.4737  -72.1604 C.3       5 UNK         0.0783 
     46 C46       -76.0850   23.6919  -70.6833 C.3       11 UNK        -0.0857 
     47 S47       -77.8532   24.1166  -70.4614 S.3       11 UNK        -0.2512 
     48 C48       -77.7929   25.5344  -69.3180 C.3       11 UNK         0.0225 
     49 N         -76.5826   22.5875  -72.8773 N.am      5 UNK        -0.4615 
     50 C         -76.4182   22.1289  -74.1241 C.2       4 UNK         0.5053 
     51 O         -75.4171   22.3533  -74.8035 O.2       4 UNK        -0.5105 
     52 CA        -77.5744   21.3217  -74.7455 C.3       4 UNK         0.0263 
     53 CB        -78.6681   20.9016  -73.7356 C.3       4 UNK        -0.1981 
     54 N         -78.1744   22.0292  -75.8851 N.am      4 UNK        -0.4224 
     55 C         -78.7064   23.2613  -75.8745 C.2       3 UNK         0.4895 
     56 O         -78.7536   23.9806  -74.8747 O.2       3 UNK        -0.5091 
     57 CA        -79.3047   23.7488  -77.2021 C.3       3 UNK         0.0250 
     58 CB        -80.6813   23.1025  -77.4340 C.3       3 UNK        -0.1996 
     59 N         -79.4745   25.2025  -77.1781 N.am      3 UNK        -0.4254 
     60 C         -78.8854   26.0648  -78.0196 C.2       2 UNK         0.5004 
     61 O         -78.1438   25.7119  -78.9374 O.2       2 UNK        -0.5226 
     62 CA        -79.1724   27.5680  -77.8260 C.3       2 UNK         0.0269 
     63 CB        -79.2387   28.3306  -79.1633 C.3       2 UNK        -0.1926 
     64 N         -80.4108   27.7933  -77.0769 N.am      2 UNK        -0.4687 
     65 C         -80.5995   28.7315  -76.1393 C.2       1 UNK         0.5165 
     66 O         -79.7543   29.5856  -75.8674 O.2       1 UNK        -0.5079 
     67 H67       -84.7005   25.8467  -75.7877 H         1 UNK         0.0900 
     68 H68       -83.8764   24.7045  -74.7262 H         1 UNK         0.0900 
     69 H69       -83.5634   24.6773  -76.4635 H         1 UNK         0.0900 
     70 H70       -83.7943   27.8478  -75.8971 H         1 UNK         0.2959 
     71 H71       -82.4945   29.5614  -75.9471 H         1 UNK         0.1079 
     72 H72       -82.9178   29.3391  -73.5411 H         1 UNK         0.0837 
     73 H73       -81.4958   30.2566  -73.8961 H         1 UNK         0.0837 
     74 H74       -80.2486   30.0251  -71.4061 H         1 UNK         0.0685 
     75 H75       -79.3541   29.9466  -72.9103 H         1 UNK         0.0685 
     76 H76       -79.6786   26.9720  -70.6318 H         1 UNK         0.1434 
     77 H77       -75.5184   27.0291  -69.6102 H         1 UNK         0.1329 
     78 H78       -77.1949   30.2335  -71.9063 H         1 UNK         0.1335 
     79 H79       -74.9838   30.4719  -70.9471 H         1 UNK         0.0680 
     80 H80       -74.3735   29.2940  -69.8052 H         1 UNK         0.0680 
     81 H81       -72.2936   30.2549  -70.9967 H         1 UNK         0.1032 
     82 H82       -71.4548   29.1357  -72.0343 H         1 UNK         0.1032 
     83 H83       -73.0924   31.5603  -72.9116 H         1 UNK         0.0461 
     84 H84       -70.1800   30.8911  -74.7220 H         1 UNK         0.3453 
     85 H85       -69.1790   32.0562  -73.8868 H         1 UNK         0.3453 
     86 H86       -72.5978   29.2482  -74.4397 H         1 UNK         0.2984 
     87 H87       -74.2198   30.0867  -76.9103 H         1 UNK         0.0554 
     88 H88       -72.7648   30.0237  -78.9577 H         1 UNK         0.0847 
     89 H89       -71.4407   30.7257  -78.0281 H         1 UNK         0.0847 
     90 H90       -72.9157   31.6393  -78.2895 H         1 UNK         0.0847 
     91 H91       -73.6129   28.0213  -76.5824 H         1 UNK         0.3141 
     92 H92       -70.7954   26.1481  -76.9970 H         1 UNK         0.0743 
     93 H93       -69.9691   26.7578  -74.7131 H         1 UNK         0.0784 
     94 H94       -71.6063   26.6623  -74.0776 H         1 UNK         0.0784 
     95 H95       -70.8033   25.2148  -74.6851 H         1 UNK         0.0784 
     96 H96       -73.2546   25.6286  -75.5446 H         1 UNK         0.3213 
     97 H97       -75.4340   25.5815  -78.2163 H         1 UNK         0.0855 
     98 H98       -74.2553   22.9827  -77.0978 H         1 UNK         0.0814 
     99 H99       -74.4951   23.3716  -78.7935 H         1 UNK         0.0814 
    100 H100      -75.8877   23.1624  -77.7450 H         1 UNK         0.0814 
    101 H101      -75.6807   24.4857  -75.5899 H         1 UNK         0.3105 
    102 H102      -75.8383   27.3168  -73.6862 H         1 UNK         0.0547 
    103 H103      -77.8458   28.1906  -74.6597 H         1 UNK         0.0837 
    104 H104      -78.4285   26.5950  -75.1238 H         1 UNK         0.0837 
    105 H105      -78.3690   27.0365  -73.4404 H         1 UNK         0.0837 
    106 H106      -77.3182   24.8131  -73.6083 H         1 UNK         0.3020 
    107 H107      -74.6899   22.9663  -72.1487 H         1 UNK         0.1245 
    108 H108      -75.4553   24.4458  -70.2067 H         1 UNK         0.0781 
    109 H109      -75.9059   22.7731  -70.1230 H         1 UNK         0.0781 
    110 H110      -77.0026   25.3864  -68.5804 H         1 UNK         0.0836 
    111 H111      -78.7256   25.5619  -68.7527 H         1 UNK         0.0836 
    112 H112      -77.4554   22.3988  -72.4054 H         1 UNK         0.3022 
    113 H113      -77.1260   20.4104  -75.1441 H         1 UNK         0.0747 
    114 H114      -79.4115   20.2629  -74.2127 H         1 UNK         0.0793 
    115 H115      -78.2445   20.3307  -72.9081 H         1 UNK         0.0793 
    116 H116      -79.1973   21.7578  -73.3152 H         1 UNK         0.0793 
    117 H117      -78.1615   21.5234  -76.7598 H         1 UNK         0.3047 
    118 H118      -78.6312   23.4510  -78.0084 H         1 UNK         0.0822 
    119 H119      -80.6032   22.0168  -77.5022 H         1 UNK         0.0807 
    120 H120      -81.1318   23.4528  -78.3628 H         1 UNK         0.0807 
    121 H121      -81.3720   23.3290  -76.6205 H         1 UNK         0.0807 
    122 H122      -80.0144   25.5523  -76.3885 H         1 UNK         0.2946 
    123 H123      -78.3263   27.9595  -77.2564 H         1 UNK         0.1144 
    124 H124      -78.3057   28.2332  -79.7200 H         1 UNK         0.0793 
    125 H125      -79.4056   29.3960  -79.0038 H         1 UNK         0.0793 
    126 H126      -80.0416   27.9558  -79.7989 H         1 UNK         0.0793 
    127 H127      -81.1565   27.1294  -77.2338 H         1 UNK         0.2896 
@<TRIPOS>BOND
     1    1    2 1    
     2    1   67 1    
     3    1   68 1    
     4    1   69 1    
     5    2    3 2    
     6    2    4 am   BACKBONE|DICT|INTERRES
     7    4    5 1    
     8    4   70 1    
     9    5    6 1    
    10    5   65 1    
    11    5   71 1    
    12    6    7 1    
    13    6   72 1    
    14    6   73 1    
    15    7    8 1    
    16    8    9 1    
    17    8   74 1    
    18    8   75 1    
    19    9   10 ar   
    20    9   14 ar   
    21   10   11 ar   
    22   10   76 1    
    23   11   12 ar   
    24   11   48 1    
    25   12   13 ar   
    26   12   77 1    
    27   13   14 ar   
    28   13   15 1    
    29   14   78 1    
    30   15   16 1    
    31   15   79 1    
    32   15   80 1    
    33   16   17 1    
    34   17   18 1    
    35   17   81 1    
    36   17   82 1    
    37   18   19 1    
    38   18   22 1    
    39   18   83 1    
    40   19   20 am   BACKBONE|DICT|INTERRES
    41   19   21 2    
    42   20   84 1    
    43   20   85 1    
    44   22   23 am   BACKBONE|DICT|INTERRES
    45   22   86 1    
    46   23   24 2    
    47   23   25 1    
    48   25   26 1    
    49   25   27 1    
    50   25   87 1    
    51   26   88 1    
    52   26   89 1    
    53   26   90 1    
    54   27   28 am   BACKBONE|DICT|INTERRES
    55   27   91 1    
    56   28   29 2    
    57   28   30 1    
    58   30   31 1    
    59   30   32 1    
    60   30   92 1    
    61   31   93 1    
    62   31   94 1    
    63   31   95 1    
    64   32   33 am   BACKBONE|DICT|INTERRES
    65   32   96 1    
    66   33   34 2    
    67   33   35 1    
    68   35   36 1    
    69   35   37 1    
    70   35   97 1    
    71   36   98 1    
    72   36   99 1    
    73   36  100 1    
    74   37   38 am   BACKBONE|DICT|INTERRES
    75   37  101 1    
    76   38   39 2    
    77   38   40 1    
    78   40   41 1    
    79   40   42 1    
    80   40  102 1    
    81   41  103 1    
    82   41  104 1    
    83   41  105 1    
    84   42   43 am   BACKBONE|DICT|INTERRES
    85   42  106 1    
    86   43   44 2    
    87   43   45 1    
    88   45   46 1    
    89   45   49 1    
    90   45  107 1    
    91   46   47 1    
    92   46  108 1    
    93   46  109 1    
    94   47   48 1    
    95   48  110 1    
    96   48  111 1    
    97   49   50 am   BACKBONE|DICT|INTERRES
    98   49  112 1    
    99   50   51 2    
   100   50   52 1    
   101   52   53 1    
   102   52   54 1    
   103   52  113 1    
   104   53  114 1    
   105   53  115 1    
   106   53  116 1    
   107   54   55 am   BACKBONE|DICT|INTERRES
   108   54  117 1    
   109   55   56 2    
   110   55   57 1    
   111   57   58 1    
   112   57   59 1    
   113   57  118 1    
   114   58  119 1    
   115   58  120 1    
   116   58  121 1    
   117   59   60 am   BACKBONE|DICT|INTERRES
   118   59  122 1    
   119   60   61 2    
   120   60   62 1    
   121   62   63 1    
   122   62   64 1    
   123   62  123 1    
   124   63  124 1    
   125   63  125 1    
   126   63  126 1    
   127   64   65 am   BACKBONE|DICT|INTERRES
   128   64  127 1    
   129   65   66 2    
@<TRIPOS>SUBSTRUCTURE
     1 UNK         1 GROUP             0       ****    0 ROOT    
