@<TRIPOS>MOLECULE
3R135
127   129    1
SMALL
USER_CHARGES


@<TRIPOS>ATOM
      1 CA        -82.8005   29.0572  -74.8532 C.3       0 UNK        -0.1998 
      2 C         -81.4208   29.0477  -75.4930 C.2       0 UNK         0.4909 
      3 O         -81.2681   29.4900  -76.6328 O.2       0 UNK        -0.5240 
      4 N         -80.4127   28.5403  -74.7725 N.am      1 UNK        -0.4739 
      5 CA        -79.0133   28.4287  -75.2095 C.3       1 UNK         0.0864 
      6 C6        -78.0374   28.3793  -74.0048 C.3       11 UNK        -0.0881 
      7 S7        -78.2617   29.7781  -72.8492 S.3       11 UNK        -0.2682 
      8 C8        -78.6473   28.9243  -71.2848 C.3       11 UNK         0.0289 
      9 C9        -77.3881   28.3511  -70.6529 C.ar      11 UNK        -0.0687 
     10 C10       -77.0120   27.0271  -70.8958 C.ar      11 UNK        -0.0823 
     11 C11       -75.8049   26.5295  -70.3976 C.ar      11 UNK        -0.0830 
     12 C12       -74.9951   27.3519  -69.6094 C.ar      11 UNK        -0.1021 
     13 C13       -75.3793   28.6664  -69.3281 C.ar      11 UNK        -0.0753 
     14 C14       -76.5793   29.1593  -69.8487 C.ar      11 UNK        -0.0933 
     15 C15       -74.4868   29.5537  -68.4747 C.3       11 UNK         0.0166 
     16 S16       -73.1302   30.2746  -69.4510 S.3       11 UNK        -0.2615 
     17 C17       -73.9900   31.5821  -70.3968 C.3       11 UNK        -0.0865 
     18 CA        -74.3767   31.1705  -71.8448 C.3       10 UNK         0.0862 
     19 C         -75.1062   32.3404  -72.5718 C.2       10 UNK         0.5551 
     20 N         -74.6263   32.8234  -73.7114 N.am      10 UNK        -0.7319 
     21 O         -76.1219   32.8287  -72.0831 O.2       10 UNK        -0.5018 
     22 N         -73.2347   30.5893  -72.5707 N.am      10 UNK        -0.4509 
     23 C         -73.3289   29.8180  -73.6583 C.2       10 UNK         0.4899 
     24 O         -74.3888   29.5226  -74.2142 O.2       10 UNK        -0.4839 
     25 CA        -72.0066   29.2693  -74.2019 C.3       9 UNK         0.0222 
     26 CB        -71.6509   27.9359  -73.5215 C.3       9 UNK        -0.1966 
     27 N         -72.1422   29.0584  -75.6382 N.am      9 UNK        -0.4218 
     28 C         -71.2204   29.3159  -76.5694 C.2       9 UNK         0.5020 
     29 O         -70.0905   29.7397  -76.3170 O.2       9 UNK        -0.5274 
     30 CA        -71.6321   29.0225  -78.0272 C.3       8 UNK         0.0270 
     31 CB        -70.5861   29.5073  -79.0493 C.3       8 UNK        -0.1976 
     32 N         -71.8789   27.5932  -78.2406 N.am      8 UNK        -0.4313 
     33 C         -72.9632   26.9287  -77.8248 C.2       8 UNK         0.5041 
     34 O         -73.9141   27.4628  -77.2434 O.2       8 UNK        -0.5577 
     35 CA        -72.9738   25.4156  -78.0642 C.3       7 UNK         0.0284 
     36 CB        -71.9602   24.7011  -77.1485 C.3       7 UNK        -0.1958 
     37 N         -74.3179   24.9329  -77.7774 N.am      7 UNK        -0.4454 
     38 C         -74.8713   23.8016  -78.2214 C.2       7 UNK         0.5089 
     39 O         -74.3021   23.0110  -78.9764 O.2       7 UNK        -0.5125 
     40 CA        -76.3038   23.5161  -77.7251 C.3       6 UNK         0.0408 
     41 CB        -76.7331   22.0504  -77.9501 C.3       6 UNK        -0.1791 
     42 N         -76.5110   23.9158  -76.3247 N.am      6 UNK        -0.4762 
     43 C         -75.8691   23.4285  -75.2467 C.2       6 UNK         0.5007 
     44 O         -75.0147   22.5432  -75.2952 O.2       6 UNK        -0.5032 
     45 CA        -76.2634   24.0109  -73.8786 C.3       5 UNK         0.0783 
     46 C46       -75.4605   25.3008  -73.5425 C.3       11 UNK        -0.0857 
     47 S47       -74.2800   25.0364  -72.1778 S.3       11 UNK        -0.2512 
     48 C48       -75.3698   25.1072  -70.7167 C.3       11 UNK         0.0225 
     49 N         -77.7121   24.2278  -73.8382 N.am      5 UNK        -0.4615 
     50 C         -78.5554   23.6097  -73.0034 C.2       4 UNK         0.5053 
     51 O         -78.2013   22.8885  -72.0709 O.2       4 UNK        -0.5105 
     52 CA        -80.0559   23.8095  -73.2723 C.3       4 UNK         0.0263 
     53 CB        -80.5191   25.1959  -72.7961 C.3       4 UNK        -0.1981 
     54 N         -80.4077   23.6325  -74.6839 N.am      4 UNK        -0.4224 
     55 C         -80.2947   22.4967  -75.3871 C.2       3 UNK         0.4895 
     56 O         -79.9077   21.4321  -74.9053 O.2       3 UNK        -0.5091 
     57 CA        -80.6608   22.5430  -76.8860 C.3       3 UNK         0.0250 
     58 CB        -82.1692   22.3044  -77.0980 C.3       3 UNK        -0.1996 
     59 N         -80.1897   23.7461  -77.5942 N.am      3 UNK        -0.4254 
     60 C         -80.5808   25.0152  -77.4173 C.2       2 UNK         0.5004 
     61 O         -81.4910   25.3566  -76.6574 O.2       2 UNK        -0.5226 
     62 CA        -79.7816   26.0961  -78.1650 C.3       2 UNK         0.0269 
     63 CB        -80.5374   26.5583  -79.4201 C.3       2 UNK        -0.1926 
     64 N         -79.5474   27.2470  -77.2908 N.am      2 UNK        -0.4687 
     65 C         -78.8485   27.2112  -76.1483 C.2       1 UNK         0.5165 
     66 O         -78.1707   26.2366  -75.8043 O.2       1 UNK        -0.5079 
     67 H67       -83.1908   30.0739  -74.8173 H         1 UNK         0.0900 
     68 H68       -82.7815   28.6646  -73.8368 H         1 UNK         0.0900 
     69 H69       -83.4875   28.4474  -75.4395 H         1 UNK         0.0900 
     70 H70       -80.6014   28.2007  -73.8416 H         1 UNK         0.2959 
     71 H71       -78.7618   29.3163  -75.7948 H         1 UNK         0.1079 
     72 H72       -78.1567   27.4426  -73.4634 H         1 UNK         0.0837 
     73 H73       -77.0029   28.3954  -74.3538 H         1 UNK         0.0837 
     74 H74       -79.1089   29.6374  -70.6002 H         1 UNK         0.0685 
     75 H75       -79.3889   28.1427  -71.4562 H         1 UNK         0.0685 
     76 H76       -77.6419   26.3896  -71.4993 H         1 UNK         0.1434 
     77 H77       -74.0578   26.9737  -69.2244 H         1 UNK         0.1329 
     78 H78       -76.8691   30.1833  -69.6567 H         1 UNK         0.1335 
     79 H79       -75.0655   30.3459  -67.9971 H         1 UNK         0.0680 
     80 H80       -74.0580   28.9624  -67.6643 H         1 UNK         0.0680 
     81 H81       -73.3330   32.4535  -70.4218 H         1 UNK         0.1032 
     82 H82       -74.8749   31.8984  -69.8414 H         1 UNK         0.1032 
     83 H83       -75.1218   30.3783  -71.7710 H         1 UNK         0.0461 
     84 H84       -75.1071   33.5815  -74.1692 H         1 UNK         0.3453 
     85 H85       -73.7979   32.4258  -74.1231 H         1 UNK         0.3453 
     86 H86       -72.3252   30.7698  -72.1719 H         1 UNK         0.2984 
     87 H87       -71.2195   30.0002  -74.0045 H         1 UNK         0.0554 
     88 H88       -70.7023   27.5440  -73.8884 H         1 UNK         0.0847 
     89 H89       -72.4166   27.1788  -73.6977 H         1 UNK         0.0847 
     90 H90       -71.5573   28.0581  -72.4415 H         1 UNK         0.0847 
     91 H91       -73.0485   28.7072  -75.9433 H         1 UNK         0.3141 
     92 H92       -72.5581   29.5697  -78.2181 H         1 UNK         0.0743 
     93 H93       -69.6323   28.9917  -78.9298 H         1 UNK         0.0784 
     94 H94       -70.9278   29.3488  -80.0723 H         1 UNK         0.0784 
     95 H95       -70.3958   30.5755  -78.9357 H         1 UNK         0.0784 
     96 H96       -71.1316   27.0728  -78.6780 H         1 UNK         0.3213 
     97 H97       -72.7346   25.2259  -79.1128 H         1 UNK         0.0855 
     98 H98       -72.1700   24.8901  -76.0946 H         1 UNK         0.0814 
     99 H99       -70.9409   25.0353  -77.3447 H         1 UNK         0.0814 
    100 H100      -71.9780   23.6219  -77.3015 H         1 UNK         0.0814 
    101 H101      -74.8658   25.5764  -77.2179 H         1 UNK         0.3105 
    102 H102      -76.9609   24.1474  -78.3231 H         1 UNK         0.0547 
    103 H103      -76.7557   21.8093  -79.0134 H         1 UNK         0.0837 
    104 H104      -76.0446   21.3501  -77.4762 H         1 UNK         0.0837 
    105 H105      -77.7269   21.8570  -77.5503 H         1 UNK         0.0837 
    106 H106      -77.1479   24.6959  -76.1827 H         1 UNK         0.3020 
    107 H107      -76.0055   23.2309  -73.1583 H         1 UNK         0.1245 
    108 H108      -76.1198   26.1273  -73.2849 H         1 UNK         0.0781 
    109 H109      -74.8913   25.6705  -74.3986 H         1 UNK         0.0781 
    110 H110      -74.8358   24.6888  -69.8623 H         1 UNK         0.0836 
    111 H111      -76.2383   24.4654  -70.8704 H         1 UNK         0.0836 
    112 H112      -78.0901   24.8328  -74.5610 H         1 UNK         0.3022 
    113 H113      -80.5976   23.0540  -72.6993 H         1 UNK         0.0747 
    114 H114      -81.6011   25.3004  -72.8789 H         1 UNK         0.0793 
    115 H115      -80.2568   25.3597  -71.7499 H         1 UNK         0.0793 
    116 H116      -80.0621   25.9938  -73.3793 H         1 UNK         0.0793 
    117 H117      -80.7803   24.4392  -75.1789 H         1 UNK         0.3047 
    118 H118      -80.1395   21.7069  -77.3547 H         1 UNK         0.0822 
    119 H119      -82.4220   22.2823  -78.1580 H         1 UNK         0.0807 
    120 H120      -82.7793   23.0733  -76.6235 H         1 UNK         0.0807 
    121 H121      -82.4726   21.3469  -76.6727 H         1 UNK         0.0807 
    122 H122      -79.4355   23.5773  -78.2445 H         1 UNK         0.2946 
    123 H123      -78.8119   25.6937  -78.4626 H         1 UNK         0.1144 
    124 H124      -79.9723   27.3123  -79.9684 H         1 UNK         0.0793 
    125 H125      -81.5100   26.9847  -79.1697 H         1 UNK         0.0793 
    126 H126      -80.7117   25.7246  -80.1016 H         1 UNK         0.0793 
    127 H127      -80.1490   28.0533  -77.4296 H         1 UNK         0.2896 
@<TRIPOS>BOND
     1    1    2 1    
     2    1   67 1    
     3    1   68 1    
     4    1   69 1    
     5    2    3 2    
     6    2    4 am   BACKBONE|DICT|INTERRES
     7    4    5 1    
     8    4   70 1    
     9    5    6 1    
    10    5   65 1    
    11    5   71 1    
    12    6    7 1    
    13    6   72 1    
    14    6   73 1    
    15    7    8 1    
    16    8    9 1    
    17    8   74 1    
    18    8   75 1    
    19    9   10 ar   
    20    9   14 ar   
    21   10   11 ar   
    22   10   76 1    
    23   11   12 ar   
    24   11   48 1    
    25   12   13 ar   
    26   12   77 1    
    27   13   14 ar   
    28   13   15 1    
    29   14   78 1    
    30   15   16 1    
    31   15   79 1    
    32   15   80 1    
    33   16   17 1    
    34   17   18 1    
    35   17   81 1    
    36   17   82 1    
    37   18   19 1    
    38   18   22 1    
    39   18   83 1    
    40   19   20 am   BACKBONE|DICT|INTERRES
    41   19   21 2    
    42   20   84 1    
    43   20   85 1    
    44   22   23 am   BACKBONE|DICT|INTERRES
    45   22   86 1    
    46   23   24 2    
    47   23   25 1    
    48   25   26 1    
    49   25   27 1    
    50   25   87 1    
    51   26   88 1    
    52   26   89 1    
    53   26   90 1    
    54   27   28 am   BACKBONE|DICT|INTERRES
    55   27   91 1    
    56   28   29 2    
    57   28   30 1    
    58   30   31 1    
    59   30   32 1    
    60   30   92 1    
    61   31   93 1    
    62   31   94 1    
    63   31   95 1    
    64   32   33 am   BACKBONE|DICT|INTERRES
    65   32   96 1    
    66   33   34 2    
    67   33   35 1    
    68   35   36 1    
    69   35   37 1    
    70   35   97 1    
    71   36   98 1    
    72   36   99 1    
    73   36  100 1    
    74   37   38 am   BACKBONE|DICT|INTERRES
    75   37  101 1    
    76   38   39 2    
    77   38   40 1    
    78   40   41 1    
    79   40   42 1    
    80   40  102 1    
    81   41  103 1    
    82   41  104 1    
    83   41  105 1    
    84   42   43 am   BACKBONE|DICT|INTERRES
    85   42  106 1    
    86   43   44 2    
    87   43   45 1    
    88   45   46 1    
    89   45   49 1    
    90   45  107 1    
    91   46   47 1    
    92   46  108 1    
    93   46  109 1    
    94   47   48 1    
    95   48  110 1    
    96   48  111 1    
    97   49   50 am   BACKBONE|DICT|INTERRES
    98   49  112 1    
    99   50   51 2    
   100   50   52 1    
   101   52   53 1    
   102   52   54 1    
   103   52  113 1    
   104   53  114 1    
   105   53  115 1    
   106   53  116 1    
   107   54   55 am   BACKBONE|DICT|INTERRES
   108   54  117 1    
   109   55   56 2    
   110   55   57 1    
   111   57   58 1    
   112   57   59 1    
   113   57  118 1    
   114   58  119 1    
   115   58  120 1    
   116   58  121 1    
   117   59   60 am   BACKBONE|DICT|INTERRES
   118   59  122 1    
   119   60   61 2    
   120   60   62 1    
   121   62   63 1    
   122   62   64 1    
   123   62  123 1    
   124   63  124 1    
   125   63  125 1    
   126   63  126 1    
   127   64   65 am   BACKBONE|DICT|INTERRES
   128   64  127 1    
   129   65   66 2    
@<TRIPOS>SUBSTRUCTURE
     1 UNK         1 GROUP             0       ****    0 ROOT    
