@<TRIPOS>MOLECULE
3R135
127   129    1
SMALL
USER_CHARGES


@<TRIPOS>ATOM
      1 CA        -85.1267   26.6108  -70.8364 C.3       0 UNK        -0.1998 
      2 C         -84.5197   27.0664  -72.1549 C.2       0 UNK         0.4909 
      3 O         -85.1159   26.8479  -73.2098 O.2       0 UNK        -0.5240 
      4 N         -83.3414   27.7026  -72.1009 N.am      1 UNK        -0.4739 
      5 CA        -82.5866   28.1802  -73.2668 C.3       1 UNK         0.0864 
      6 C6        -81.4663   29.1546  -72.8286 C.3       11 UNK        -0.0881 
      7 S7        -80.8214   30.2002  -74.1790 S.3       11 UNK        -0.2682 
      8 C8        -79.2601   29.3639  -74.6069 C.3       11 UNK         0.0289 
      9 C9        -78.2324   29.4385  -73.4867 C.ar      11 UNK        -0.0687 
     10 C10       -78.0303   28.3377  -72.6504 C.ar      11 UNK        -0.0823 
     11 C11       -77.0995   28.3946  -71.6094 C.ar      11 UNK        -0.0830 
     12 C12       -76.3660   29.5681  -71.4113 C.ar      11 UNK        -0.1021 
     13 C13       -76.5469   30.6733  -72.2481 C.ar      11 UNK        -0.0753 
     14 C14       -77.4832   30.6017  -73.2854 C.ar      11 UNK        -0.0933 
     15 C15       -75.7633   31.9577  -72.0120 C.3       11 UNK         0.0166 
     16 S16       -74.4429   32.1867  -73.2474 S.3       11 UNK        -0.2615 
     17 C17       -72.9057   31.9312  -72.2878 C.3       11 UNK        -0.0865 
     18 CA        -72.1897   30.5557  -72.4483 C.3       10 UNK         0.0862 
     19 C         -72.8540   29.4110  -71.6239 C.2       10 UNK         0.5551 
     20 N         -73.1528   28.2502  -72.1872 N.am      10 UNK        -0.7319 
     21 O         -73.0491   29.5673  -70.4208 O.2       10 UNK        -0.5018 
     22 N         -71.7436   30.2611  -73.8256 N.am      10 UNK        -0.4509 
     23 C         -72.4427   29.7603  -74.8524 C.2       10 UNK         0.4899 
     24 O         -73.6339   29.4633  -74.8081 O.2       10 UNK        -0.4839 
     25 CA        -71.6802   29.5024  -76.1618 C.3       9 UNK         0.0222 
     26 CB        -70.3389   30.2612  -76.2994 C.3       9 UNK        -0.1966 
     27 N         -71.5250   28.0602  -76.3701 N.am      9 UNK        -0.4218 
     28 C         -70.7975   27.1982  -75.6393 C.2       9 UNK         0.5020 
     29 O         -70.0409   27.5448  -74.7306 O.2       9 UNK        -0.5274 
     30 CA        -70.9333   25.6960  -75.9627 C.3       8 UNK         0.0270 
     31 CB        -70.9191   24.8345  -74.6858 C.3       8 UNK        -0.1976 
     32 N         -72.1624   25.4128  -76.7050 N.am      8 UNK        -0.4313 
     33 C         -72.2416   25.2097  -78.0272 C.2       8 UNK         0.5041 
     34 O         -71.2597   25.1623  -78.7691 O.2       8 UNK        -0.5577 
     35 CA        -73.6468   25.0593  -78.6436 C.3       7 UNK         0.0284 
     36 CB        -73.9531   23.5791  -78.9228 C.3       7 UNK        -0.1958 
     37 N         -74.7253   25.6283  -77.8296 N.am      7 UNK        -0.4454 
     38 C         -74.8493   26.9207  -77.4956 C.2       7 UNK         0.5089 
     39 O         -74.0900   27.8014  -77.8997 O.2       7 UNK        -0.5125 
     40 CA        -75.9801   27.2769  -76.5119 C.3       6 UNK         0.0408 
     41 CB        -77.2752   27.5514  -77.2912 C.3       6 UNK        -0.1791 
     42 N         -76.2215   26.2470  -75.4902 N.am      6 UNK        -0.4762 
     43 C         -75.3022   25.7806  -74.6263 C.2       6 UNK         0.5007 
     44 O         -74.1318   26.1613  -74.6028 O.2       6 UNK        -0.5032 
     45 CA        -75.7308   24.6227  -73.7015 C.3       5 UNK         0.0783 
     46 C46       -76.5697   25.0762  -72.4858 C.3       11 UNK        -0.0857 
     47 S47       -75.6332   26.0535  -71.2656 S.3       11 UNK        -0.2512 
     48 C48       -76.9102   27.2091  -70.6725 C.3       11 UNK         0.0225 
     49 N         -76.4516   23.6136  -74.4745 N.am      5 UNK        -0.4615 
     50 C         -75.8727   22.6940  -75.2559 C.2       4 UNK         0.5053 
     51 O         -74.6559   22.5306  -75.3373 O.2       4 UNK        -0.5105 
     52 CA        -76.8133   21.8184  -76.1034 C.3       4 UNK         0.0263 
     53 CB        -77.1547   20.5186  -75.3578 C.3       4 UNK        -0.1981 
     54 N         -78.0545   22.5046  -76.4784 N.am      4 UNK        -0.4224 
     55 C         -78.1142   23.5599  -77.3035 C.2       3 UNK         0.4895 
     56 O         -77.1331   24.0377  -77.8704 O.2       3 UNK        -0.5091 
     57 CA        -79.4893   24.2188  -77.4989 C.3       3 UNK         0.0250 
     58 CB        -80.2453   23.5502  -78.6578 C.3       3 UNK        -0.1996 
     59 N         -80.3262   24.2088  -76.2948 N.am      3 UNK        -0.4254 
     60 C         -80.0367   24.8466  -75.1517 C.2       2 UNK         0.5004 
     61 O         -78.9932   25.4746  -74.9562 O.2       2 UNK        -0.5226 
     62 CA        -81.0638   24.7060  -74.0149 C.3       2 UNK         0.0269 
     63 CB        -80.4911   23.8253  -72.8919 C.3       2 UNK        -0.1926 
     64 N         -81.4980   25.9850  -73.4434 N.am      2 UNK        -0.4687 
     65 C         -82.0557   27.0038  -74.1182 C.2       1 UNK         0.5165 
     66 O         -82.2165   27.0157  -75.3395 O.2       1 UNK        -0.5079 
     67 H67       -84.4996   26.8745  -69.9850 H         1 UNK         0.0900 
     68 H68       -85.2582   25.5292  -70.8383 H         1 UNK         0.0900 
     69 H69       -86.1032   27.0726  -70.6936 H         1 UNK         0.0900 
     70 H70       -82.9109   27.8613  -71.2007 H         1 UNK         0.2959 
     71 H71       -83.2887   28.7358  -73.8933 H         1 UNK         0.1079 
     72 H72       -81.8635   29.8471  -72.0845 H         1 UNK         0.0837 
     73 H73       -80.6631   28.6245  -72.3196 H         1 UNK         0.0837 
     74 H74       -79.4717   28.3252  -74.8634 H         1 UNK         0.0685 
     75 H75       -78.8488   29.8248  -75.5060 H         1 UNK         0.0685 
     76 H76       -78.6181   27.4446  -72.8057 H         1 UNK         0.1434 
     77 H77       -75.6559   29.6213  -70.5984 H         1 UNK         0.1329 
     78 H78       -77.6347   31.4560  -73.9310 H         1 UNK         0.1335 
     79 H79       -76.4458   32.8065  -72.0744 H         1 UNK         0.0680 
     80 H80       -75.3539   31.9776  -71.0013 H         1 UNK         0.0680 
     81 H81       -73.0891   32.1452  -71.2337 H         1 UNK         0.1032 
     82 H82       -72.2145   32.7129  -72.6056 H         1 UNK         0.1032 
     83 H83       -71.2374   30.6788  -71.9305 H         1 UNK         0.0461 
     84 H84       -73.5936   27.5303  -71.6371 H         1 UNK         0.3453 
     85 H85       -73.1154   28.1619  -73.1938 H         1 UNK         0.3453 
     86 H86       -70.7563   30.4003  -73.9823 H         1 UNK         0.2984 
     87 H87       -72.3305   29.8543  -76.9641 H         1 UNK         0.0554 
     88 H88       -70.4883   31.3365  -76.1929 H         1 UNK         0.0847 
     89 H89       -69.5986   29.9580  -75.5593 H         1 UNK         0.0847 
     90 H90       -69.9006   30.0973  -77.2838 H         1 UNK         0.0847 
     91 H91       -72.1744   27.6716  -77.0453 H         1 UNK         0.3141 
     92 H92       -70.0620   25.4212  -76.5602 H         1 UNK         0.0743 
     93 H93       -69.9741   24.9392  -74.1515 H         1 UNK         0.0784 
     94 H94       -71.7154   25.1201  -73.9975 H         1 UNK         0.0784 
     95 H95       -71.0417   23.7767  -74.9193 H         1 UNK         0.0784 
     96 H96       -73.0207   25.4885  -76.1657 H         1 UNK         0.3213 
     97 H97       -73.6396   25.5934  -79.5960 H         1 UNK         0.0855 
     98 H98       -73.1813   23.1307  -79.5498 H         1 UNK         0.0814 
     99 H99       -74.9023   23.4614  -79.4461 H         1 UNK         0.0814 
    100 H100      -74.0037   22.9982  -78.0014 H         1 UNK         0.0814 
    101 H101      -75.4610   24.9906  -77.5371 H         1 UNK         0.3105 
    102 H102      -75.6981   28.1889  -75.9831 H         1 UNK         0.0547 
    103 H103      -77.1798   28.4590  -77.8882 H         1 UNK         0.0837 
    104 H104      -77.5120   26.7393  -77.9779 H         1 UNK         0.0837 
    105 H105      -78.1278   27.6832  -76.6290 H         1 UNK         0.0837 
    106 H106      -77.1724   25.8937  -75.4185 H         1 UNK         0.3020 
    107 H107      -74.8156   24.1642  -73.3183 H         1 UNK         0.1245 
    108 H108      -76.9496   24.2003  -71.9574 H         1 UNK         0.0781 
    109 H109      -77.4501   25.6202  -72.8174 H         1 UNK         0.0781 
    110 H110      -76.6189   27.5676  -69.6840 H         1 UNK         0.0836 
    111 H111      -77.8532   26.6785  -70.5313 H         1 UNK         0.0836 
    112 H112      -77.4561   23.7112  -74.5062 H         1 UNK         0.3022 
    113 H113      -76.2811   21.5588  -77.0213 H         1 UNK         0.0747 
    114 H114      -77.7563   19.8522  -75.9763 H         1 UNK         0.0793 
    115 H115      -76.2480   19.9753  -75.0873 H         1 UNK         0.0793 
    116 H116      -77.7054   20.7123  -74.4364 H         1 UNK         0.0793 
    117 H117      -78.9113   22.1663  -76.0653 H         1 UNK         0.3047 
    118 H118      -79.3185   25.2628  -77.7662 H         1 UNK         0.0822 
    119 H119      -81.1799   24.0685  -78.8737 H         1 UNK         0.0807 
    120 H120      -80.4807   22.5073  -78.4416 H         1 UNK         0.0807 
    121 H121      -79.6502   23.5671  -79.5722 H         1 UNK         0.0807 
    122 H122      -81.2032   23.7127  -76.3656 H         1 UNK         0.2946 
    123 H123      -81.9563   24.2166  -74.4107 H         1 UNK         0.1144 
    124 H124      -81.2378   23.6269  -72.1228 H         1 UNK         0.0793 
    125 H125      -79.6315   24.2933  -72.4108 H         1 UNK         0.0793 
    126 H126      -80.1633   22.8588  -73.2772 H         1 UNK         0.0793 
    127 H127      -81.4267   26.0705  -72.4406 H         1 UNK         0.2896 
@<TRIPOS>BOND
     1    1    2 1    
     2    1   67 1    
     3    1   68 1    
     4    1   69 1    
     5    2    3 2    
     6    2    4 am   BACKBONE|DICT|INTERRES
     7    4    5 1    
     8    4   70 1    
     9    5    6 1    
    10    5   65 1    
    11    5   71 1    
    12    6    7 1    
    13    6   72 1    
    14    6   73 1    
    15    7    8 1    
    16    8    9 1    
    17    8   74 1    
    18    8   75 1    
    19    9   10 ar   
    20    9   14 ar   
    21   10   11 ar   
    22   10   76 1    
    23   11   12 ar   
    24   11   48 1    
    25   12   13 ar   
    26   12   77 1    
    27   13   14 ar   
    28   13   15 1    
    29   14   78 1    
    30   15   16 1    
    31   15   79 1    
    32   15   80 1    
    33   16   17 1    
    34   17   18 1    
    35   17   81 1    
    36   17   82 1    
    37   18   19 1    
    38   18   22 1    
    39   18   83 1    
    40   19   20 am   BACKBONE|DICT|INTERRES
    41   19   21 2    
    42   20   84 1    
    43   20   85 1    
    44   22   23 am   BACKBONE|DICT|INTERRES
    45   22   86 1    
    46   23   24 2    
    47   23   25 1    
    48   25   26 1    
    49   25   27 1    
    50   25   87 1    
    51   26   88 1    
    52   26   89 1    
    53   26   90 1    
    54   27   28 am   BACKBONE|DICT|INTERRES
    55   27   91 1    
    56   28   29 2    
    57   28   30 1    
    58   30   31 1    
    59   30   32 1    
    60   30   92 1    
    61   31   93 1    
    62   31   94 1    
    63   31   95 1    
    64   32   33 am   BACKBONE|DICT|INTERRES
    65   32   96 1    
    66   33   34 2    
    67   33   35 1    
    68   35   36 1    
    69   35   37 1    
    70   35   97 1    
    71   36   98 1    
    72   36   99 1    
    73   36  100 1    
    74   37   38 am   BACKBONE|DICT|INTERRES
    75   37  101 1    
    76   38   39 2    
    77   38   40 1    
    78   40   41 1    
    79   40   42 1    
    80   40  102 1    
    81   41  103 1    
    82   41  104 1    
    83   41  105 1    
    84   42   43 am   BACKBONE|DICT|INTERRES
    85   42  106 1    
    86   43   44 2    
    87   43   45 1    
    88   45   46 1    
    89   45   49 1    
    90   45  107 1    
    91   46   47 1    
    92   46  108 1    
    93   46  109 1    
    94   47   48 1    
    95   48  110 1    
    96   48  111 1    
    97   49   50 am   BACKBONE|DICT|INTERRES
    98   49  112 1    
    99   50   51 2    
   100   50   52 1    
   101   52   53 1    
   102   52   54 1    
   103   52  113 1    
   104   53  114 1    
   105   53  115 1    
   106   53  116 1    
   107   54   55 am   BACKBONE|DICT|INTERRES
   108   54  117 1    
   109   55   56 2    
   110   55   57 1    
   111   57   58 1    
   112   57   59 1    
   113   57  118 1    
   114   58  119 1    
   115   58  120 1    
   116   58  121 1    
   117   59   60 am   BACKBONE|DICT|INTERRES
   118   59  122 1    
   119   60   61 2    
   120   60   62 1    
   121   62   63 1    
   122   62   64 1    
   123   62  123 1    
   124   63  124 1    
   125   63  125 1    
   126   63  126 1    
   127   64   65 am   BACKBONE|DICT|INTERRES
   128   64  127 1    
   129   65   66 2    
@<TRIPOS>SUBSTRUCTURE
     1 UNK         1 GROUP             0       ****    0 ROOT    
