@<TRIPOS>MOLECULE
3R135
127   129    1
SMALL
USER_CHARGES


@<TRIPOS>ATOM
      1 CA        -82.4792   25.9586  -72.1248 C.3       0 UNK        -0.1998 
      2 C         -81.9368   26.6287  -73.3776 C.2       0 UNK         0.4909 
      3 O         -80.7955   26.3709  -73.7517 O.2       0 UNK        -0.5240 
      4 N         -82.7619   27.4593  -74.0329 N.am      1 UNK        -0.4739 
      5 CA        -82.4861   28.2977  -75.2164 C.3       1 UNK         0.0864 
      6 C6        -81.8616   29.6822  -74.8648 C.3       11 UNK        -0.0881 
      7 S7        -80.1157   29.6630  -74.3283 S.3       11 UNK        -0.2682 
      8 C8        -80.2726   29.8978  -72.5343 C.3       11 UNK         0.0289 
      9 C9        -79.0016   29.4736  -71.8138 C.ar      11 UNK        -0.0687 
     10 C10       -78.8882   28.1765  -71.3085 C.ar      11 UNK        -0.0823 
     11 C11       -77.7423   27.7825  -70.6150 C.ar      11 UNK        -0.0830 
     12 C12       -76.7012   28.6952  -70.4314 C.ar      11 UNK        -0.1021 
     13 C13       -76.7819   29.9915  -70.9592 C.ar      11 UNK        -0.0753 
     14 C14       -77.9438   30.3723  -71.6414 C.ar      11 UNK        -0.0933 
     15 C15       -75.6529   31.0159  -70.8064 C.3       11 UNK         0.0166 
     16 S16       -74.0144   30.3379  -70.3545 S.3       11 UNK        -0.2615 
     17 C17       -73.6215   29.3102  -71.8125 C.3       11 UNK        -0.0865 
     18 CA        -72.5005   29.9121  -72.7029 C.3       10 UNK         0.0862 
     19 C         -71.0721   29.5110  -72.2187 C.2       10 UNK         0.5551 
     20 N         -70.2311   28.8899  -73.0388 N.am      10 UNK        -0.7319 
     21 O         -70.7099   29.7784  -71.0760 O.2       10 UNK        -0.5018 
     22 N         -72.7599   29.6264  -74.1213 N.am      10 UNK        -0.4509 
     23 C         -72.3002   30.3591  -75.1431 C.2       10 UNK         0.4899 
     24 O         -71.6764   31.4125  -75.0017 O.2       10 UNK        -0.4839 
     25 CA        -72.5803   29.8151  -76.5574 C.3       9 UNK         0.0222 
     26 CB        -71.7031   30.4776  -77.6409 C.3       9 UNK        -0.1966 
     27 N         -72.4922   28.3517  -76.6468 N.am      9 UNK        -0.4218 
     28 C         -71.4304   27.5790  -76.3633 C.2       9 UNK         0.5020 
     29 O         -70.3614   28.0282  -75.9465 O.2       9 UNK        -0.5274 
     30 CA        -71.5668   26.0507  -76.5354 C.3       8 UNK         0.0270 
     31 CB        -71.2480   25.3291  -75.2141 C.3       8 UNK        -0.1976 
     32 N         -72.8852   25.6155  -77.0037 N.am      8 UNK        -0.4313 
     33 C         -73.3417   25.7177  -78.2591 C.2       8 UNK         0.5041 
     34 O         -72.6602   26.1102  -79.2063 O.2       8 UNK        -0.5577 
     35 CA        -74.8299   25.3866  -78.4800 C.3       7 UNK         0.0284 
     36 CB        -75.0268   23.8853  -78.7407 C.3       7 UNK        -0.1958 
     37 N         -75.6796   25.8121  -77.3611 N.am      7 UNK        -0.4454 
     38 C         -75.8337   27.0829  -76.9594 C.2       7 UNK         0.5089 
     39 O         -75.3146   28.0459  -77.5221 O.2       7 UNK        -0.5125 
     40 CA        -76.6544   27.3123  -75.6831 C.3       6 UNK         0.0408 
     41 CB        -78.1556   27.2670  -75.9944 C.3       6 UNK        -0.1791 
     42 N         -76.3274   26.3283  -74.6503 N.am      6 UNK        -0.4762 
     43 C         -75.1751   26.3040  -73.9653 C.2       6 UNK         0.5007 
     44 O         -74.2844   27.1439  -74.1038 O.2       6 UNK        -0.5032 
     45 CA        -74.9463   25.1127  -73.0100 C.3       5 UNK         0.0783 
     46 C46       -75.4459   25.4021  -71.5704 C.3       11 UNK        -0.0857 
     47 S47       -77.2445   25.1586  -71.3445 S.3       11 UNK        -0.2512 
     48 C48       -77.6417   26.3740  -70.0517 C.3       11 UNK         0.0225 
     49 N         -75.4861   23.8560  -73.5390 N.am      5 UNK        -0.4615 
     50 C         -75.0464   23.2289  -74.6361 C.2       4 UNK         0.5053 
     51 O         -74.0767   23.6056  -75.2915 O.2       4 UNK        -0.5105 
     52 CA        -75.8573   22.0084  -75.1107 C.3       4 UNK         0.0263 
     53 CB        -75.3559   20.7299  -74.4216 C.3       4 UNK        -0.1981 
     54 N         -77.3064   22.1433  -74.9061 N.am      4 UNK        -0.4224 
     55 C         -78.0619   23.1217  -75.4263 C.2       3 UNK         0.4895 
     56 O         -77.6036   24.0119  -76.1455 O.2       3 UNK        -0.5091 
     57 CA        -79.5552   23.1169  -75.0443 C.3       3 UNK         0.0250 
     58 CB        -79.7427   23.2677  -73.5247 C.3       3 UNK        -0.1996 
     59 N         -80.2990   24.1903  -75.7125 N.am      3 UNK        -0.4254 
     60 C         -80.7002   24.1533  -76.9922 C.2       2 UNK         0.5004 
     61 O         -80.5478   23.1688  -77.7181 O.2       2 UNK        -0.5226 
     62 CA        -81.3975   25.4047  -77.5608 C.3       2 UNK         0.0269 
     63 CB        -82.5118   25.0508  -78.5647 C.3       2 UNK        -0.1926 
     64 N         -81.9552   26.2531  -76.5043 N.am      2 UNK        -0.4687 
     65 C         -81.8367   27.5862  -76.4342 C.2       1 UNK         0.5165 
     66 O         -81.2810   28.2555  -77.3074 O.2       1 UNK        -0.5079 
     67 H67       -81.8172   26.1496  -71.2809 H         1 UNK         0.0900 
     68 H68       -83.4729   26.3218  -71.8639 H         1 UNK         0.0900 
     69 H69       -82.5382   24.8808  -72.2725 H         1 UNK         0.0900 
     70 H70       -83.6972   27.5705  -73.6661 H         1 UNK         0.2959 
     71 H71       -83.4844   28.5291  -75.5918 H         1 UNK         0.1079 
     72 H72       -81.9252   30.3429  -75.7313 H         1 UNK         0.0837 
     73 H73       -82.4641   30.1699  -74.0972 H         1 UNK         0.0837 
     74 H74       -80.4966   30.9447  -72.3244 H         1 UNK         0.0685 
     75 H75       -81.1194   29.3199  -72.1615 H         1 UNK         0.0685 
     76 H76       -79.6924   27.4695  -71.4562 H         1 UNK         0.1434 
     77 H77       -75.8266   28.3823  -69.8801 H         1 UNK         0.1329 
     78 H78       -78.0272   31.3733  -72.0428 H         1 UNK         0.1335 
     79 H79       -75.5423   31.5775  -71.7356 H         1 UNK         0.0680 
     80 H80       -75.9459   31.7371  -70.0424 H         1 UNK         0.0680 
     81 H81       -73.3659   28.3015  -71.4830 H         1 UNK         0.1032 
     82 H82       -74.5379   29.1933  -72.3929 H         1 UNK         0.1032 
     83 H83       -72.5483   30.9978  -72.5981 H         1 UNK         0.0461 
     84 H84       -70.4827   28.6872  -73.9993 H         1 UNK         0.3453 
     85 H85       -69.3126   28.6474  -72.7039 H         1 UNK         0.3453 
     86 H86       -73.2518   28.7571  -74.3127 H         1 UNK         0.2984 
     87 H87       -73.6180   30.0700  -76.7752 H         1 UNK         0.0554 
     88 H88       -71.8625   31.5562  -77.6695 H         1 UNK         0.0847 
     89 H89       -71.9389   30.0910  -78.6324 H         1 UNK         0.0847 
     90 H90       -70.6409   30.3106  -77.4594 H         1 UNK         0.0847 
     91 H91       -73.3446   27.8988  -76.9583 H         1 UNK         0.3141 
     92 H92       -70.8244   25.7459  -77.2756 H         1 UNK         0.0743 
     93 H93       -70.2389   25.5614  -74.8711 H         1 UNK         0.0784 
     94 H94       -71.9363   25.6220  -74.4212 H         1 UNK         0.0784 
     95 H95       -71.3075   24.2464  -75.3277 H         1 UNK         0.0784 
     96 H96       -73.4906   25.1855  -76.3095 H         1 UNK         0.3213 
     97 H97       -75.1611   25.9324  -79.3661 H         1 UNK         0.0855 
     98 H98       -74.6729   23.2800  -77.9068 H         1 UNK         0.0814 
     99 H99       -74.4741   23.5703  -79.6267 H         1 UNK         0.0814 
    100 H100      -76.0766   23.6441  -78.9090 H         1 UNK         0.0814 
    101 H101      -76.1957   25.0896  -76.8634 H         1 UNK         0.3105 
    102 H102      -76.4190   28.3038  -75.2900 H         1 UNK         0.0547 
    103 H103      -78.7451   27.2637  -75.0796 H         1 UNK         0.0837 
    104 H104      -78.4564   28.1397  -76.5749 H         1 UNK         0.0837 
    105 H105      -78.4370   26.3877  -76.5715 H         1 UNK         0.0837 
    106 H106      -76.9856   25.5723  -74.5213 H         1 UNK         0.3020 
    107 H107      -73.8625   24.9883  -72.9520 H         1 UNK         0.1245 
    108 H108      -75.1603   26.4076  -71.2579 H         1 UNK         0.0781 
    109 H109      -74.9423   24.7288  -70.8753 H         1 UNK         0.0781 
    110 H110      -76.8979   26.3204  -69.2550 H         1 UNK         0.0836 
    111 H111      -78.5941   26.1003  -69.5953 H         1 UNK         0.0836 
    112 H112      -76.2954   23.4912  -73.0579 H         1 UNK         0.3022 
    113 H113      -75.6894   21.9032  -76.1842 H         1 UNK         0.0747 
    114 H114      -75.8498   19.8436  -74.8205 H         1 UNK         0.0793 
    115 H115      -74.2841   20.5981  -74.5775 H         1 UNK         0.0793 
    116 H116      -75.5278   20.7556  -73.3447 H         1 UNK         0.0793 
    117 H117      -77.7480   21.4427  -74.3281 H         1 UNK         0.3047 
    118 H118      -79.9732   22.1559  -75.3513 H         1 UNK         0.0822 
    119 H119      -79.2541   22.4656  -72.9710 H         1 UNK         0.0807 
    120 H120      -80.7983   23.2424  -73.2548 H         1 UNK         0.0807 
    121 H121      -79.3335   24.2114  -73.1647 H         1 UNK         0.0807 
    122 H122      -80.4201   25.0478  -75.1800 H         1 UNK         0.2946 
    123 H123      -80.6177   25.9503  -78.0972 H         1 UNK         0.1144 
    124 H124      -82.9664   25.9486  -78.9839 H         1 UNK         0.0793 
    125 H125      -83.3012   24.4620  -78.0963 H         1 UNK         0.0793 
    126 H126      -82.1212   24.4700  -79.4013 H         1 UNK         0.0793 
    127 H127      -82.4193   25.7778  -75.7428 H         1 UNK         0.2896 
@<TRIPOS>BOND
     1    1    2 1    
     2    1   67 1    
     3    1   68 1    
     4    1   69 1    
     5    2    3 2    
     6    2    4 am   BACKBONE|DICT|INTERRES
     7    4    5 1    
     8    4   70 1    
     9    5    6 1    
    10    5   65 1    
    11    5   71 1    
    12    6    7 1    
    13    6   72 1    
    14    6   73 1    
    15    7    8 1    
    16    8    9 1    
    17    8   74 1    
    18    8   75 1    
    19    9   10 ar   
    20    9   14 ar   
    21   10   11 ar   
    22   10   76 1    
    23   11   12 ar   
    24   11   48 1    
    25   12   13 ar   
    26   12   77 1    
    27   13   14 ar   
    28   13   15 1    
    29   14   78 1    
    30   15   16 1    
    31   15   79 1    
    32   15   80 1    
    33   16   17 1    
    34   17   18 1    
    35   17   81 1    
    36   17   82 1    
    37   18   19 1    
    38   18   22 1    
    39   18   83 1    
    40   19   20 am   BACKBONE|DICT|INTERRES
    41   19   21 2    
    42   20   84 1    
    43   20   85 1    
    44   22   23 am   BACKBONE|DICT|INTERRES
    45   22   86 1    
    46   23   24 2    
    47   23   25 1    
    48   25   26 1    
    49   25   27 1    
    50   25   87 1    
    51   26   88 1    
    52   26   89 1    
    53   26   90 1    
    54   27   28 am   BACKBONE|DICT|INTERRES
    55   27   91 1    
    56   28   29 2    
    57   28   30 1    
    58   30   31 1    
    59   30   32 1    
    60   30   92 1    
    61   31   93 1    
    62   31   94 1    
    63   31   95 1    
    64   32   33 am   BACKBONE|DICT|INTERRES
    65   32   96 1    
    66   33   34 2    
    67   33   35 1    
    68   35   36 1    
    69   35   37 1    
    70   35   97 1    
    71   36   98 1    
    72   36   99 1    
    73   36  100 1    
    74   37   38 am   BACKBONE|DICT|INTERRES
    75   37  101 1    
    76   38   39 2    
    77   38   40 1    
    78   40   41 1    
    79   40   42 1    
    80   40  102 1    
    81   41  103 1    
    82   41  104 1    
    83   41  105 1    
    84   42   43 am   BACKBONE|DICT|INTERRES
    85   42  106 1    
    86   43   44 2    
    87   43   45 1    
    88   45   46 1    
    89   45   49 1    
    90   45  107 1    
    91   46   47 1    
    92   46  108 1    
    93   46  109 1    
    94   47   48 1    
    95   48  110 1    
    96   48  111 1    
    97   49   50 am   BACKBONE|DICT|INTERRES
    98   49  112 1    
    99   50   51 2    
   100   50   52 1    
   101   52   53 1    
   102   52   54 1    
   103   52  113 1    
   104   53  114 1    
   105   53  115 1    
   106   53  116 1    
   107   54   55 am   BACKBONE|DICT|INTERRES
   108   54  117 1    
   109   55   56 2    
   110   55   57 1    
   111   57   58 1    
   112   57   59 1    
   113   57  118 1    
   114   58  119 1    
   115   58  120 1    
   116   58  121 1    
   117   59   60 am   BACKBONE|DICT|INTERRES
   118   59  122 1    
   119   60   61 2    
   120   60   62 1    
   121   62   63 1    
   122   62   64 1    
   123   62  123 1    
   124   63  124 1    
   125   63  125 1    
   126   63  126 1    
   127   64   65 am   BACKBONE|DICT|INTERRES
   128   64  127 1    
   129   65   66 2    
@<TRIPOS>SUBSTRUCTURE
     1 UNK         1 GROUP             0       ****    0 ROOT    
