@<TRIPOS>MOLECULE
3R135
127   129    1
SMALL
USER_CHARGES


@<TRIPOS>ATOM
      1 CA        -80.3141   26.5090  -77.9250 C.3       0 UNK        -0.1998 
      2 C         -80.2039   26.8536  -76.4479 C.2       0 UNK         0.4909 
      3 O         -79.1018   27.1301  -75.9762 O.2       0 UNK        -0.5240 
      4 N         -81.3341   26.8342  -75.7310 N.am      1 UNK        -0.4739 
      5 CA        -81.4393   27.0800  -74.2918 C.3       1 UNK         0.0864 
      6 C6        -82.0411   28.4762  -73.9720 C.3       11 UNK        -0.0881 
      7 S7        -80.8904   29.8614  -74.2673 S.3       11 UNK        -0.2682 
      8 C8        -80.6576   30.5230  -72.5809 C.3       11 UNK         0.0289 
      9 C9        -79.4426   29.9192  -71.8891 C.ar      11 UNK        -0.0687 
     10 C10       -79.4322   28.5738  -71.5053 C.ar      11 UNK        -0.0823 
     11 C11       -78.2900   28.0112  -70.9287 C.ar      11 UNK        -0.0830 
     12 C12       -77.1859   28.8242  -70.6524 C.ar      11 UNK        -0.1021 
     13 C13       -77.1814   30.1674  -71.0350 C.ar      11 UNK        -0.0753 
     14 C14       -78.3120   30.7085  -71.6534 C.ar      11 UNK        -0.0933 
     15 C15       -75.9423   31.0243  -70.8217 C.3       11 UNK         0.0166 
     16 S16       -74.7580   30.8306  -72.1947 S.3       11 UNK        -0.2615 
     17 C17       -73.9052   29.2784  -71.7437 C.3       11 UNK        -0.0865 
     18 CA        -72.4187   29.2703  -72.1861 C.3       10 UNK         0.0862 
     19 C         -71.6235   28.1023  -71.5272 C.2       10 UNK         0.5551 
     20 N         -70.8512   27.3075  -72.2592 N.am      10 UNK        -0.7319 
     21 O         -71.6978   27.9187  -70.3147 O.2       10 UNK        -0.5018 
     22 N         -72.2988   29.3180  -73.6519 N.am      10 UNK        -0.4509 
     23 C         -71.2933   29.8967  -74.3179 C.2       10 UNK         0.4899 
     24 O         -70.3893   30.5363  -73.7768 O.2       10 UNK        -0.4839 
     25 CA        -71.2951   29.6995  -75.8464 C.3       9 UNK         0.0222 
     26 CB        -69.9871   30.1678  -76.5180 C.3       9 UNK        -0.1966 
     27 N         -71.6107   28.3209  -76.2395 N.am      9 UNK        -0.4218 
     28 C         -70.9649   27.1972  -75.8868 C.2       9 UNK         0.5020 
     29 O         -69.9756   27.1826  -75.1531 O.2       9 UNK        -0.5274 
     30 CA        -71.5212   25.8518  -76.3982 C.3       8 UNK         0.0270 
     31 CB        -72.0059   24.9873  -75.2214 C.3       8 UNK        -0.1976 
     32 N         -72.6154   25.9905  -77.3620 N.am      8 UNK        -0.4313 
     33 C         -72.4812   26.3961  -78.6321 C.2       8 UNK         0.5041 
     34 O         -71.3972   26.6137  -79.1736 O.2       8 UNK        -0.5577 
     35 CA        -73.7825   26.6509  -79.4096 C.3       7 UNK         0.0284 
     36 CB        -74.2907   25.3529  -80.0540 C.3       7 UNK        -0.1958 
     37 N         -74.8268   27.2308  -78.5573 N.am      7 UNK        -0.4454 
     38 C         -74.8010   28.4851  -78.0821 C.2       7 UNK         0.5089 
     39 O         -73.9122   29.2958  -78.3409 O.2       7 UNK        -0.5125 
     40 CA        -75.9316   28.8916  -77.1227 C.3       6 UNK         0.0408 
     41 CB        -77.1765   29.3364  -77.9055 C.3       6 UNK        -0.1791 
     42 N         -76.2986   27.8252  -76.1913 N.am      6 UNK        -0.4762 
     43 C         -75.4995   27.3290  -75.2359 C.2       6 UNK         0.5007 
     44 O         -74.3575   27.7320  -75.0101 O.2       6 UNK        -0.5032 
     45 CA        -76.0823   26.1738  -74.4014 C.3       5 UNK         0.0783 
     46 C46       -76.9852   26.7663  -73.2951 C.3       11 UNK        -0.0857 
     47 S47       -77.9038   25.5714  -72.2571 S.3       11 UNK        -0.2512 
     48 C48       -78.1983   26.5058  -70.7033 C.3       11 UNK         0.0225 
     49 N         -76.7743   25.1838  -75.2287 N.am      5 UNK        -0.4615 
     50 C         -76.2481   24.4651  -76.2280 C.2       4 UNK         0.5053 
     51 O         -75.0948   24.6155  -76.6356 O.2       4 UNK        -0.5105 
     52 CA        -77.1637   23.3927  -76.8626 C.3       4 UNK         0.0263 
     53 CB        -76.4431   22.5419  -77.9239 C.3       4 UNK        -0.1981 
     54 N         -77.7470   22.4944  -75.8581 N.am      4 UNK        -0.4224 
     55 C         -78.7534   22.8240  -75.0408 C.2       3 UNK         0.4895 
     56 O         -79.3189   23.9215  -75.0882 O.2       3 UNK        -0.5091 
     57 CA        -79.1599   21.7960  -73.9661 C.3       3 UNK         0.0250 
     58 CB        -77.9871   21.4856  -73.0187 C.3       3 UNK        -0.1996 
     59 N         -80.2560   22.3581  -73.1800 N.am      3 UNK        -0.4254 
     60 C         -81.5356   22.3494  -73.5733 C.2       2 UNK         0.5004 
     61 O         -82.0177   21.5479  -74.3744 O.2       2 UNK        -0.5226 
     62 CA        -82.3637   23.5368  -73.0833 C.3       2 UNK         0.0269 
     63 CB        -82.4990   23.5640  -71.5473 C.3       2 UNK        -0.1926 
     64 N         -81.7168   24.7530  -73.5840 N.am      2 UNK        -0.4687 
     65 C         -82.2994   25.9487  -73.6974 C.2       1 UNK         0.5165 
     66 O         -83.4741   26.1597  -73.3886 O.2       1 UNK        -0.5079 
     67 H67       -79.9652   27.3444  -78.5311 H         1 UNK         0.0900 
     68 H68       -81.3394   26.2825  -78.2165 H         1 UNK         0.0900 
     69 H69       -79.6973   25.6402  -78.1519 H         1 UNK         0.0900 
     70 H70       -82.2010   26.5740  -76.1807 H         1 UNK         0.2959 
     71 H71       -80.4525   27.0050  -73.8293 H         1 UNK         0.1079 
     72 H72       -82.9380   28.6479  -74.5700 H         1 UNK         0.0837 
     73 H73       -82.3744   28.5179  -72.9338 H         1 UNK         0.0837 
     74 H74       -81.5484   30.3683  -71.9714 H         1 UNK         0.0685 
     75 H75       -80.5428   31.6051  -72.6610 H         1 UNK         0.0685 
     76 H76       -80.2905   27.9496  -71.7037 H         1 UNK         0.1434 
     77 H77       -76.3012   28.3937  -70.2044 H         1 UNK         0.1329 
     78 H78       -78.3045   31.7443  -71.9642 H         1 UNK         0.1335 
     79 H79       -75.4668   30.7815  -69.8703 H         1 UNK         0.0680 
     80 H80       -76.2266   32.0755  -70.7551 H         1 UNK         0.0680 
     81 H81       -74.4340   28.4371  -72.1892 H         1 UNK         0.1032 
     82 H82       -73.9790   29.1483  -70.6628 H         1 UNK         0.1032 
     83 H83       -71.9657   30.1769  -71.7804 H         1 UNK         0.0461 
     84 H84       -70.3446   26.5665  -71.8025 H         1 UNK         0.3453 
     85 H85       -70.7224   27.4634  -73.2515 H         1 UNK         0.3453 
     86 H86       -72.9958   28.7919  -74.1734 H         1 UNK         0.2984 
     87 H87       -72.1060   30.3187  -76.2328 H         1 UNK         0.0554 
     88 H88       -70.0302   30.0408  -77.5997 H         1 UNK         0.0847 
     89 H89       -69.1224   29.6148  -76.1494 H         1 UNK         0.0847 
     90 H90       -69.8041   31.2253  -76.3237 H         1 UNK         0.0847 
     91 H91       -72.4399   28.2175  -76.8094 H         1 UNK         0.3141 
     92 H92       -70.6987   25.3288  -76.8903 H         1 UNK         0.0743 
     93 H93       -72.8097   25.4742  -74.6689 H         1 UNK         0.0784 
     94 H94       -72.3735   24.0196  -75.5635 H         1 UNK         0.0784 
     95 H95       -71.1966   24.7951  -74.5156 H         1 UNK         0.0784 
     96 H96       -73.5462   25.7540  -77.0268 H         1 UNK         0.3213 
     97 H97       -73.5630   27.3638  -80.2077 H         1 UNK         0.0855 
     98 H98       -74.4350   24.5687  -79.3121 H         1 UNK         0.0814 
     99 H99       -73.5711   24.9768  -80.7824 H         1 UNK         0.0814 
    100 H100      -75.2340   25.5055  -80.5786 H         1 UNK         0.0814 
    101 H101      -75.5691   26.6174  -78.2532 H         1 UNK         0.3105 
    102 H102      -75.5790   29.7400  -76.5322 H         1 UNK         0.0547 
    103 H103      -76.9389   30.1560  -78.5849 H         1 UNK         0.0837 
    104 H104      -77.5898   28.5238  -78.5040 H         1 UNK         0.0837 
    105 H105      -77.9607   29.6878  -77.2344 H         1 UNK         0.0837 
    106 H106      -77.2547   27.4745  -76.2380 H         1 UNK         0.3020 
    107 H107      -75.2456   25.6596  -73.9245 H         1 UNK         0.1245 
    108 H108      -77.7216   27.4534  -73.7177 H         1 UNK         0.0781 
    109 H109      -76.3519   27.3624  -72.6435 H         1 UNK         0.0781 
    110 H110      -77.3944   26.2773  -70.0020 H         1 UNK         0.0836 
    111 H111      -79.1168   26.1446  -70.2386 H         1 UNK         0.0836 
    112 H112      -77.7493   25.0161  -74.9949 H         1 UNK         0.3022 
    113 H113      -77.9751   23.9245  -77.3638 H         1 UNK         0.0747 
    114 H114      -77.0997   21.7723  -78.3301 H         1 UNK         0.0793 
    115 H115      -76.1227   23.1573  -78.7632 H         1 UNK         0.0793 
    116 H116      -75.5585   22.0494  -77.5177 H         1 UNK         0.0793 
    117 H117      -77.3010   21.5953  -75.7458 H         1 UNK         0.3047 
    118 H118      -79.4834   20.8772  -74.4600 H         1 UNK         0.0822 
    119 H119      -77.1716   20.9867  -73.5432 H         1 UNK         0.0807 
    120 H120      -78.2976   20.8231  -72.2104 H         1 UNK         0.0807 
    121 H121      -77.5795   22.3920  -72.5683 H         1 UNK         0.0807 
    122 H122      -79.9840   23.0804  -72.5286 H         1 UNK         0.2946 
    123 H123      -83.3593   23.4533  -73.5256 H         1 UNK         0.1144 
    124 H124      -82.8954   22.6187  -71.1744 H         1 UNK         0.0793 
    125 H125      -83.1843   24.3481  -71.2251 H         1 UNK         0.0793 
    126 H126      -81.5427   23.7379  -71.0531 H         1 UNK         0.0793 
    127 H127      -80.7900   24.6220  -73.9862 H         1 UNK         0.2896 
@<TRIPOS>BOND
     1    1    2 1    
     2    1   67 1    
     3    1   68 1    
     4    1   69 1    
     5    2    3 2    
     6    2    4 am   BACKBONE|DICT|INTERRES
     7    4    5 1    
     8    4   70 1    
     9    5    6 1    
    10    5   65 1    
    11    5   71 1    
    12    6    7 1    
    13    6   72 1    
    14    6   73 1    
    15    7    8 1    
    16    8    9 1    
    17    8   74 1    
    18    8   75 1    
    19    9   10 ar   
    20    9   14 ar   
    21   10   11 ar   
    22   10   76 1    
    23   11   12 ar   
    24   11   48 1    
    25   12   13 ar   
    26   12   77 1    
    27   13   14 ar   
    28   13   15 1    
    29   14   78 1    
    30   15   16 1    
    31   15   79 1    
    32   15   80 1    
    33   16   17 1    
    34   17   18 1    
    35   17   81 1    
    36   17   82 1    
    37   18   19 1    
    38   18   22 1    
    39   18   83 1    
    40   19   20 am   BACKBONE|DICT|INTERRES
    41   19   21 2    
    42   20   84 1    
    43   20   85 1    
    44   22   23 am   BACKBONE|DICT|INTERRES
    45   22   86 1    
    46   23   24 2    
    47   23   25 1    
    48   25   26 1    
    49   25   27 1    
    50   25   87 1    
    51   26   88 1    
    52   26   89 1    
    53   26   90 1    
    54   27   28 am   BACKBONE|DICT|INTERRES
    55   27   91 1    
    56   28   29 2    
    57   28   30 1    
    58   30   31 1    
    59   30   32 1    
    60   30   92 1    
    61   31   93 1    
    62   31   94 1    
    63   31   95 1    
    64   32   33 am   BACKBONE|DICT|INTERRES
    65   32   96 1    
    66   33   34 2    
    67   33   35 1    
    68   35   36 1    
    69   35   37 1    
    70   35   97 1    
    71   36   98 1    
    72   36   99 1    
    73   36  100 1    
    74   37   38 am   BACKBONE|DICT|INTERRES
    75   37  101 1    
    76   38   39 2    
    77   38   40 1    
    78   40   41 1    
    79   40   42 1    
    80   40  102 1    
    81   41  103 1    
    82   41  104 1    
    83   41  105 1    
    84   42   43 am   BACKBONE|DICT|INTERRES
    85   42  106 1    
    86   43   44 2    
    87   43   45 1    
    88   45   46 1    
    89   45   49 1    
    90   45  107 1    
    91   46   47 1    
    92   46  108 1    
    93   46  109 1    
    94   47   48 1    
    95   48  110 1    
    96   48  111 1    
    97   49   50 am   BACKBONE|DICT|INTERRES
    98   49  112 1    
    99   50   51 2    
   100   50   52 1    
   101   52   53 1    
   102   52   54 1    
   103   52  113 1    
   104   53  114 1    
   105   53  115 1    
   106   53  116 1    
   107   54   55 am   BACKBONE|DICT|INTERRES
   108   54  117 1    
   109   55   56 2    
   110   55   57 1    
   111   57   58 1    
   112   57   59 1    
   113   57  118 1    
   114   58  119 1    
   115   58  120 1    
   116   58  121 1    
   117   59   60 am   BACKBONE|DICT|INTERRES
   118   59  122 1    
   119   60   61 2    
   120   60   62 1    
   121   62   63 1    
   122   62   64 1    
   123   62  123 1    
   124   63  124 1    
   125   63  125 1    
   126   63  126 1    
   127   64   65 am   BACKBONE|DICT|INTERRES
   128   64  127 1    
   129   65   66 2    
@<TRIPOS>SUBSTRUCTURE
     1 UNK         1 GROUP             0       ****    0 ROOT    
