@<TRIPOS>MOLECULE
3R135
127   129    1
SMALL
USER_CHARGES


@<TRIPOS>ATOM
      1 CA        -79.3482   29.0797  -70.5226 C.3       0 UNK        -0.1998 
      2 C         -80.4141   28.7027  -71.5372 C.2       0 UNK         0.4909 
      3 O         -81.5820   28.5586  -71.1741 O.2       0 UNK        -0.5240 
      4 N         -80.0210   28.5356  -72.8074 N.am      1 UNK        -0.4739 
      5 CA        -80.9189   28.1441  -73.9049 C.3       1 UNK         0.0864 
      6 C6        -80.3404   28.4722  -75.3043 C.3       11 UNK        -0.0881 
      7 S7        -79.9377   30.2452  -75.4922 S.3       11 UNK        -0.2682 
      8 C8        -78.1319   30.2171  -75.7331 C.3       11 UNK         0.0289 
      9 C9        -77.3987   29.6878  -74.5100 C.ar      11 UNK        -0.0687 
     10 C10       -76.9468   28.3667  -74.4847 C.ar      11 UNK        -0.0823 
     11 C11       -76.2831   27.8598  -73.3671 C.ar      11 UNK        -0.0830 
     12 C12       -76.0540   28.6950  -72.2705 C.ar      11 UNK        -0.1021 
     13 C13       -76.4832   30.0266  -72.2885 C.ar      11 UNK        -0.0753 
     14 C14       -77.1641   30.5158  -73.4084 C.ar      11 UNK        -0.0933 
     15 C15       -76.2029   30.9351  -71.0994 C.3       11 UNK         0.0166 
     16 S16       -74.4218   31.2446  -70.8797 S.3       11 UNK        -0.2615 
     17 C17       -74.0198   32.2541  -72.3505 C.3       11 UNK        -0.0865 
     18 CA        -73.5732   31.4230  -73.5912 C.3       10 UNK         0.0862 
     19 C         -73.2468   32.3069  -74.8322 C.2       10 UNK         0.5551 
     20 N         -72.5693   31.7808  -75.8447 N.am      10 UNK        -0.7319 
     21 O         -73.6200   33.4764  -74.8927 O.2       10 UNK        -0.5018 
     22 N         -72.5464   30.4180  -73.2784 N.am      10 UNK        -0.4509 
     23 C         -71.2846   30.6431  -72.8968 C.2       10 UNK         0.4899 
     24 O         -70.7990   31.7657  -72.7530 O.2       10 UNK        -0.4839 
     25 CA        -70.3956   29.4097  -72.6353 C.3       9 UNK         0.0222 
     26 CB        -70.5089   28.9480  -71.1687 C.3       9 UNK        -0.1966 
     27 N         -70.6028   28.2992  -73.5802 N.am      9 UNK        -0.4218 
     28 C         -71.6771   27.5103  -73.7238 C.2       9 UNK         0.5020 
     29 O         -72.6707   27.5471  -72.9960 O.2       9 UNK        -0.5274 
     30 CA        -71.6728   26.5663  -74.9369 C.3       8 UNK         0.0270 
     31 CB        -71.7352   25.0981  -74.4844 C.3       8 UNK        -0.1976 
     32 N         -72.7967   26.8535  -75.8352 N.am      8 UNK        -0.4313 
     33 C         -73.0078   28.0325  -76.4460 C.2       8 UNK         0.5041 
     34 O         -72.2303   28.9847  -76.3574 O.2       8 UNK        -0.5577 
     35 CA        -74.2770   28.1836  -77.3039 C.3       7 UNK         0.0284 
     36 CB        -74.0838   29.1461  -78.4919 C.3       7 UNK        -0.1958 
     37 N         -74.7471   26.8870  -77.7855 N.am      7 UNK        -0.4454 
     38 C         -76.0262   26.5380  -77.9548 C.2       7 UNK         0.5089 
     39 O         -76.9768   27.3057  -77.8091 O.2       7 UNK        -0.5125 
     40 CA        -76.2971   25.0729  -78.3347 C.3       6 UNK         0.0408 
     41 CB        -75.2532   24.4874  -79.3107 C.3       6 UNK        -0.1791 
     42 N         -76.4532   24.2170  -77.1547 N.am      6 UNK        -0.4762 
     43 C         -75.5565   23.9750  -76.1814 C.2       6 UNK         0.5007 
     44 O         -74.4346   24.4826  -76.1465 O.2       6 UNK        -0.5032 
     45 CA        -75.9630   22.9910  -75.0568 C.3       5 UNK         0.0783 
     46 C46       -76.1360   23.6659  -73.6676 C.3       11 UNK        -0.0857 
     47 S47       -77.1107   25.2134  -73.6278 S.3       11 UNK        -0.2512 
     48 C48       -75.7745   26.4266  -73.3692 C.3       11 UNK         0.0225 
     49 N         -77.1066   22.1441  -75.4213 N.am      5 UNK        -0.4615 
     50 C         -77.0433   21.1785  -76.3529 C.2       4 UNK         0.5053 
     51 O         -75.9942   20.8374  -76.9005 O.2       4 UNK        -0.5105 
     52 CA        -78.3482   20.4801  -76.7781 C.3       4 UNK         0.0263 
     53 CB        -78.4144   19.0627  -76.1859 C.3       4 UNK        -0.1981 
     54 N         -79.5795   21.1935  -76.4345 N.am      4 UNK        -0.4224 
     55 C         -79.9330   22.4259  -76.8265 C.2       3 UNK         0.4895 
     56 O         -79.2339   23.1536  -77.5326 O.2       3 UNK        -0.5091 
     57 CA        -81.2966   22.9366  -76.3253 C.3       3 UNK         0.0250 
     58 CB        -82.3334   21.8075  -76.1347 C.3       3 UNK        -0.1996 
     59 N         -81.2167   23.7427  -75.1010 N.am      3 UNK        -0.4254 
     60 C         -80.5638   23.4799  -73.9587 C.2       2 UNK         0.5004 
     61 O         -79.7891   22.5337  -73.8025 O.2       2 UNK        -0.5226 
     62 CA        -80.8502   24.4366  -72.7846 C.3       2 UNK         0.0269 
     63 CB        -80.0924   24.0499  -71.5000 C.3       2 UNK        -0.1926 
     64 N         -80.5610   25.8375  -73.1003 N.am      2 UNK        -0.4687 
     65 C         -81.3398   26.6610  -73.8172 C.2       1 UNK         0.5165 
     66 O         -82.3666   26.2891  -74.3881 O.2       1 UNK        -0.5079 
     67 H67       -78.4362   28.5070  -70.6850 H         1 UNK         0.0900 
     68 H68       -79.6927   28.8766  -69.5088 H         1 UNK         0.0900 
     69 H69       -79.1165   30.1415  -70.5975 H         1 UNK         0.0900 
     70 H70       -79.0564   28.7038  -73.0646 H         1 UNK         0.2959 
     71 H71       -81.8387   28.7233  -73.7935 H         1 UNK         0.1079 
     72 H72       -79.4662   27.8576  -75.5209 H         1 UNK         0.0837 
     73 H73       -81.0701   28.2248  -76.0778 H         1 UNK         0.0837 
     74 H74       -77.8947   29.6199  -76.6150 H         1 UNK         0.0685 
     75 H75       -77.7893   31.2294  -75.9517 H         1 UNK         0.0685 
     76 H76       -77.1165   27.7216  -75.3340 H         1 UNK         0.1434 
     77 H77       -75.5189   28.3196  -71.4087 H         1 UNK         0.1329 
     78 H78       -77.5059   31.5417  -73.4290 H         1 UNK         0.1335 
     79 H79       -76.7281   31.8865  -71.1966 H         1 UNK         0.0680 
     80 H80       -76.5868   30.4637  -70.1939 H         1 UNK         0.0680 
     81 H81       -74.8852   32.8708  -72.5990 H         1 UNK         0.1032 
     82 H82       -73.2298   32.9519  -72.0682 H         1 UNK         0.1032 
     83 H83       -74.4331   30.8386  -73.9123 H         1 UNK         0.0461 
     84 H84       -72.3187   30.7944  -75.8519 H         1 UNK         0.3453 
     85 H85       -72.3573   32.3546  -76.6443 H         1 UNK         0.3453 
     86 H86       -72.8475   29.4496  -73.3224 H         1 UNK         0.2984 
     87 H87       -69.3653   29.7323  -72.7936 H         1 UNK         0.0554 
     88 H88       -71.5270   28.6561  -70.9087 H         1 UNK         0.0847 
     89 H89       -70.2238   29.7512  -70.4881 H         1 UNK         0.0847 
     90 H90       -69.8533   28.1015  -70.9654 H         1 UNK         0.0847 
     91 H91       -69.8751   28.2062  -74.2759 H         1 UNK         0.3141 
     92 H92       -70.7506   26.7111  -75.5032 H         1 UNK         0.0743 
     93 H93       -72.6541   24.8844  -73.9365 H         1 UNK         0.0784 
     94 H94       -71.6880   24.4179  -75.3351 H         1 UNK         0.0784 
     95 H95       -70.8992   24.8555  -73.8273 H         1 UNK         0.0784 
     96 H96       -73.4827   26.1087  -75.9338 H         1 UNK         0.3213 
     97 H97       -75.0306   28.6122  -76.6404 H         1 UNK         0.0855 
     98 H98       -73.3098   28.7909  -79.1729 H         1 UNK         0.0814 
     99 H99       -73.7907   30.1396  -78.1504 H         1 UNK         0.0814 
    100 H100      -75.0057   29.2635  -79.0616 H         1 UNK         0.0814 
    101 H101      -74.0424   26.1723  -77.9073 H         1 UNK         0.3105 
    102 H102      -77.2607   25.0595  -78.8465 H         1 UNK         0.0547 
    103 H103      -75.1290   25.1311  -80.1826 H         1 UNK         0.0837 
    104 H104      -74.2719   24.3593  -78.8538 H         1 UNK         0.0837 
    105 H105      -75.5708   23.5109  -79.6765 H         1 UNK         0.0837 
    106 H106      -77.3640   23.7732  -77.0771 H         1 UNK         0.3020 
    107 H107      -75.1091   22.3162  -74.9561 H         1 UNK         0.1245 
    108 H108      -75.1486   23.8693  -73.2496 H         1 UNK         0.0781 
    109 H109      -76.5954   22.9641  -72.9696 H         1 UNK         0.0781 
    110 H110      -75.0314   26.3231  -74.1592 H         1 UNK         0.0836 
    111 H111      -75.2614   26.2002  -72.4331 H         1 UNK         0.0836 
    112 H112      -77.9975   22.3564  -74.9840 H         1 UNK         0.3022 
    113 H113      -78.3201   20.3953  -77.8663 H         1 UNK         0.0747 
    114 H114      -79.2782   18.5139  -76.5617 H         1 UNK         0.0793 
    115 H115      -77.5275   18.4850  -76.4507 H         1 UNK         0.0793 
    116 H116      -78.4759   19.0846  -75.0970 H         1 UNK         0.0793 
    117 H117      -80.2050   20.7168  -75.8013 H         1 UNK         0.3047 
    118 H118      -81.6751   23.5991  -77.1055 H         1 UNK         0.0822 
    119 H119      -83.3293   22.2192  -75.9701 H         1 UNK         0.0807 
    120 H120      -82.1009   21.1696  -75.2812 H         1 UNK         0.0807 
    121 H121      -82.3947   21.1723  -77.0197 H         1 UNK         0.0807 
    122 H122      -81.7795   24.5891  -75.1015 H         1 UNK         0.2946 
    123 H123      -81.9175   24.3484  -72.5685 H         1 UNK         0.1144 
    124 H124      -79.0118   24.1009  -71.6340 H         1 UNK         0.0793 
    125 H125      -80.3335   23.0303  -71.1964 H         1 UNK         0.0793 
    126 H126      -80.3589   24.7040  -70.6696 H         1 UNK         0.0793 
    127 H127      -79.7091   26.2166  -72.7119 H         1 UNK         0.2896 
@<TRIPOS>BOND
     1    1    2 1    
     2    1   67 1    
     3    1   68 1    
     4    1   69 1    
     5    2    3 2    
     6    2    4 am   BACKBONE|DICT|INTERRES
     7    4    5 1    
     8    4   70 1    
     9    5    6 1    
    10    5   65 1    
    11    5   71 1    
    12    6    7 1    
    13    6   72 1    
    14    6   73 1    
    15    7    8 1    
    16    8    9 1    
    17    8   74 1    
    18    8   75 1    
    19    9   10 ar   
    20    9   14 ar   
    21   10   11 ar   
    22   10   76 1    
    23   11   12 ar   
    24   11   48 1    
    25   12   13 ar   
    26   12   77 1    
    27   13   14 ar   
    28   13   15 1    
    29   14   78 1    
    30   15   16 1    
    31   15   79 1    
    32   15   80 1    
    33   16   17 1    
    34   17   18 1    
    35   17   81 1    
    36   17   82 1    
    37   18   19 1    
    38   18   22 1    
    39   18   83 1    
    40   19   20 am   BACKBONE|DICT|INTERRES
    41   19   21 2    
    42   20   84 1    
    43   20   85 1    
    44   22   23 am   BACKBONE|DICT|INTERRES
    45   22   86 1    
    46   23   24 2    
    47   23   25 1    
    48   25   26 1    
    49   25   27 1    
    50   25   87 1    
    51   26   88 1    
    52   26   89 1    
    53   26   90 1    
    54   27   28 am   BACKBONE|DICT|INTERRES
    55   27   91 1    
    56   28   29 2    
    57   28   30 1    
    58   30   31 1    
    59   30   32 1    
    60   30   92 1    
    61   31   93 1    
    62   31   94 1    
    63   31   95 1    
    64   32   33 am   BACKBONE|DICT|INTERRES
    65   32   96 1    
    66   33   34 2    
    67   33   35 1    
    68   35   36 1    
    69   35   37 1    
    70   35   97 1    
    71   36   98 1    
    72   36   99 1    
    73   36  100 1    
    74   37   38 am   BACKBONE|DICT|INTERRES
    75   37  101 1    
    76   38   39 2    
    77   38   40 1    
    78   40   41 1    
    79   40   42 1    
    80   40  102 1    
    81   41  103 1    
    82   41  104 1    
    83   41  105 1    
    84   42   43 am   BACKBONE|DICT|INTERRES
    85   42  106 1    
    86   43   44 2    
    87   43   45 1    
    88   45   46 1    
    89   45   49 1    
    90   45  107 1    
    91   46   47 1    
    92   46  108 1    
    93   46  109 1    
    94   47   48 1    
    95   48  110 1    
    96   48  111 1    
    97   49   50 am   BACKBONE|DICT|INTERRES
    98   49  112 1    
    99   50   51 2    
   100   50   52 1    
   101   52   53 1    
   102   52   54 1    
   103   52  113 1    
   104   53  114 1    
   105   53  115 1    
   106   53  116 1    
   107   54   55 am   BACKBONE|DICT|INTERRES
   108   54  117 1    
   109   55   56 2    
   110   55   57 1    
   111   57   58 1    
   112   57   59 1    
   113   57  118 1    
   114   58  119 1    
   115   58  120 1    
   116   58  121 1    
   117   59   60 am   BACKBONE|DICT|INTERRES
   118   59  122 1    
   119   60   61 2    
   120   60   62 1    
   121   62   63 1    
   122   62   64 1    
   123   62  123 1    
   124   63  124 1    
   125   63  125 1    
   126   63  126 1    
   127   64   65 am   BACKBONE|DICT|INTERRES
   128   64  127 1    
   129   65   66 2    
@<TRIPOS>SUBSTRUCTURE
     1 UNK         1 GROUP             0       ****    0 ROOT    
