@<TRIPOS>MOLECULE
3R135
127   129    1
SMALL
USER_CHARGES


@<TRIPOS>ATOM
      1 CA        -85.2094   28.7530  -73.9765 C.3       0 UNK        -0.1998 
      2 C         -84.2333   28.9785  -75.1211 C.2       0 UNK         0.4909 
      3 O         -84.6359   28.9522  -76.2844 O.2       0 UNK        -0.5240 
      4 N         -82.9517   29.1990  -74.8012 N.am      1 UNK        -0.4739 
      5 CA        -81.8668   29.4074  -75.7703 C.3       1 UNK         0.0864 
      6 C6        -80.6751   30.1685  -75.1350 C.3       11 UNK        -0.0881 
      7 S7        -79.9470   29.3503  -73.6686 S.3       11 UNK        -0.2682 
      8 C8        -78.2736   28.9678  -74.2720 C.3       11 UNK         0.0289 
      9 C9        -77.3534   28.5627  -73.1299 C.ar      11 UNK        -0.0687 
     10 C10       -77.0187   27.2212  -72.9242 C.ar      11 UNK        -0.0823 
     11 C11       -76.1639   26.8530  -71.8781 C.ar      11 UNK        -0.0830 
     12 C12       -75.6509   27.8408  -71.0317 C.ar      11 UNK        -0.1021 
     13 C13       -75.9723   29.1868  -71.2325 C.ar      11 UNK        -0.0753 
     14 C14       -76.8232   29.5402  -72.2831 C.ar      11 UNK        -0.0933 
     15 C15       -75.4278   30.2630  -70.3050 C.3       11 UNK         0.0166 
     16 S16       -73.9212   31.0363  -70.9716 S.3       11 UNK        -0.2615 
     17 C17       -72.6393   29.8617  -70.4150 C.3       11 UNK        -0.0865 
     18 CA        -71.3812   29.8725  -71.3184 C.3       10 UNK         0.0862 
     19 C         -70.2776   28.9620  -70.7113 C.2       10 UNK         0.5551 
     20 N         -69.3884   29.5219  -69.9027 N.am      10 UNK        -0.7319 
     21 O         -70.2513   27.7521  -70.9286 O.2       10 UNK        -0.5018 
     22 N         -71.7190   29.5198  -72.7045 N.am      10 UNK        -0.4509 
     23 C         -70.8737   29.5434  -73.7428 C.2       10 UNK         0.4899 
     24 O         -69.7029   29.9191  -73.6727 O.2       10 UNK        -0.4839 
     25 CA        -71.4276   29.0750  -75.0988 C.3       9 UNK         0.0222 
     26 CB        -71.1228   27.5835  -75.3128 C.3       9 UNK        -0.1966 
     27 N         -72.8678   29.2949  -75.2439 N.am      9 UNK        -0.4218 
     28 C         -73.4642   30.4815  -75.4122 C.2       9 UNK         0.5020 
     29 O         -72.8554   31.5519  -75.4638 O.2       9 UNK        -0.5274 
     30 CA        -74.9973   30.4479  -75.5874 C.3       8 UNK         0.0270 
     31 CB        -75.6184   31.8539  -75.6878 C.3       8 UNK        -0.1976 
     32 N         -75.4036   29.6560  -76.7560 N.am      8 UNK        -0.4313 
     33 C         -75.3708   28.3193  -76.8197 C.2       8 UNK         0.5041 
     34 O         -75.0440   27.6068  -75.8654 O.2       8 UNK        -0.5577 
     35 CA        -75.6992   27.6674  -78.1692 C.3       7 UNK         0.0284 
     36 CB        -74.6222   28.0156  -79.2186 C.3       7 UNK        -0.1958 
     37 N         -75.7417   26.2274  -77.9384 N.am      7 UNK        -0.4454 
     38 C         -76.1207   25.2609  -78.7780 C.2       7 UNK         0.5089 
     39 O         -76.5358   25.4773  -79.9174 O.2       7 UNK        -0.5125 
     40 CA        -76.0642   23.8049  -78.2658 C.3       6 UNK         0.0408 
     41 CB        -75.2202   22.9080  -79.1942 C.3       6 UNK        -0.1791 
     42 N         -75.6605   23.6454  -76.8583 N.am      6 UNK        -0.4762 
     43 C         -74.4580   23.8636  -76.2959 C.2       6 UNK         0.5007 
     44 O         -73.4707   24.2471  -76.9225 O.2       6 UNK        -0.5032 
     45 CA        -74.3404   23.6615  -74.7666 C.3       5 UNK         0.0783 
     46 C46       -74.3866   25.0407  -74.0648 C.3       11 UNK        -0.0857 
     47 S47       -74.1501   24.9610  -72.2583 S.3       11 UNK        -0.2512 
     48 C48       -75.8100   25.3897  -71.6385 C.3       11 UNK         0.0225 
     49 N         -75.3577   22.7456  -74.2369 N.am      5 UNK        -0.4615 
     50 C         -75.4221   21.4314  -74.4870 C.2       4 UNK         0.5053 
     51 O         -74.5615   20.8163  -75.1170 O.2       4 UNK        -0.5105 
     52 CA        -76.6611   20.6704  -73.9688 C.3       4 UNK         0.0263 
     53 CB        -76.2988   19.8626  -72.7116 C.3       4 UNK        -0.1981 
     54 N         -77.8447   21.4964  -73.6798 N.am      4 UNK        -0.4224 
     55 C         -78.4674   22.3116  -74.5436 C.2       3 UNK         0.4895 
     56 O         -78.0765   22.5083  -75.6986 O.2       3 UNK        -0.5091 
     57 CA        -79.7086   23.0595  -74.0294 C.3       3 UNK         0.0250 
     58 CB        -79.4067   23.8557  -72.7392 C.3       3 UNK        -0.1996 
     59 N         -80.1483   23.9496  -75.1017 N.am      3 UNK        -0.4254 
     60 C         -81.2174   24.7483  -75.1198 C.2       2 UNK         0.5004 
     61 O         -82.0535   24.8207  -74.2154 O.2       2 UNK        -0.5226 
     62 CA        -81.3825   25.6214  -76.3664 C.3       2 UNK         0.0269 
     63 CB        -82.4344   25.0378  -77.3249 C.3       2 UNK        -0.1926 
     64 N         -81.7941   26.9477  -75.9247 N.am      2 UNK        -0.4687 
     65 C         -81.4081   28.1073  -76.4687 C.2       1 UNK         0.5165 
     66 O         -80.7049   28.1821  -77.4776 O.2       1 UNK        -0.5079 
     67 H67       -84.7188   28.8103  -73.0049 H         1 UNK         0.0900 
     68 H68       -85.9982   29.5044  -74.0025 H         1 UNK         0.0900 
     69 H69       -85.6714   27.7701  -74.0657 H         1 UNK         0.0900 
     70 H70       -82.6683   29.2091  -73.8307 H         1 UNK         0.2959 
     71 H71       -82.2599   30.0424  -76.5678 H         1 UNK         0.1079 
     72 H72       -81.0109   31.1581  -74.8212 H         1 UNK         0.0837 
     73 H73       -79.9027   30.3564  -75.8834 H         1 UNK         0.0837 
     74 H74       -77.8592   29.8442  -74.7703 H         1 UNK         0.0685 
     75 H75       -78.3296   28.1804  -75.0255 H         1 UNK         0.0685 
     76 H76       -77.4217   26.4684  -73.5858 H         1 UNK         0.1434 
     77 H77       -75.0026   27.5566  -70.2145 H         1 UNK         0.1329 
     78 H78       -77.0786   30.5794  -72.4406 H         1 UNK         0.1335 
     79 H79       -75.2288   29.8547  -69.3128 H         1 UNK         0.0680 
     80 H80       -76.1834   31.0377  -70.1652 H         1 UNK         0.0680 
     81 H81       -72.3755   30.1244  -69.3885 H         1 UNK         0.1032 
     82 H82       -73.0556   28.8547  -70.3718 H         1 UNK         0.1032 
     83 H83       -70.9940   30.8933  -71.3434 H         1 UNK         0.0461 
     84 H84       -69.4079   30.5116  -69.7106 H         1 UNK         0.3453 
     85 H85       -68.6743   28.9455  -69.4852 H         1 UNK         0.3453 
     86 H86       -72.6629   29.2002  -72.8606 H         1 UNK         0.2984 
     87 H87       -70.9203   29.6432  -75.8813 H         1 UNK         0.0554 
     88 H88       -70.0476   27.4006  -75.2954 H         1 UNK         0.0847 
     89 H89       -71.4962   27.2315  -76.2749 H         1 UNK         0.0847 
     90 H90       -71.5681   26.9654  -74.5324 H         1 UNK         0.0847 
     91 H91       -73.4712   28.4747  -75.2684 H         1 UNK         0.3141 
     92 H92       -75.3977   29.9740  -74.6906 H         1 UNK         0.0743 
     93 H93       -75.2551   32.3951  -76.5622 H         1 UNK         0.0784 
     94 H94       -76.7056   31.8073  -75.7499 H         1 UNK         0.0784 
     95 H95       -75.3721   32.4507  -74.8084 H         1 UNK         0.0784 
     96 H96       -75.6423   30.1763  -77.5884 H         1 UNK         0.3213 
     97 H97       -76.6822   28.0076  -78.5006 H         1 UNK         0.0855 
     98 H98       -73.6335   27.6793  -78.9029 H         1 UNK         0.0814 
     99 H99       -74.5626   29.0910  -79.3880 H         1 UNK         0.0814 
    100 H100      -74.8363   27.5572  -80.1838 H         1 UNK         0.0814 
    101 H101      -75.4249   25.9762  -77.0087 H         1 UNK         0.3105 
    102 H102      -77.0909   23.4386  -78.3101 H         1 UNK         0.0547 
    103 H103      -75.2112   21.8747  -78.8475 H         1 UNK         0.0837 
    104 H104      -74.1872   23.2496  -79.2629 H         1 UNK         0.0837 
    105 H105      -75.6249   22.9053  -80.2070 H         1 UNK         0.0837 
    106 H106      -76.4078   23.3102  -76.2551 H         1 UNK         0.3020 
    107 H107      -73.3612   23.2138  -74.5814 H         1 UNK         0.1245 
    108 H108      -75.3286   25.5402  -74.2872 H         1 UNK         0.0781 
    109 H109      -73.6064   25.6931  -74.4599 H         1 UNK         0.0781 
    110 H110      -75.8460   25.1825  -70.5680 H         1 UNK         0.0836 
    111 H111      -76.5467   24.7298  -72.0943 H         1 UNK         0.0836 
    112 H112      -76.0923   23.1610  -73.6870 H         1 UNK         0.3022 
    113 H113      -76.9470   19.9677  -74.7542 H         1 UNK         0.0747 
    114 H114      -77.1243   19.2241  -72.3962 H         1 UNK         0.0793 
    115 H115      -75.4434   19.2111  -72.8972 H         1 UNK         0.0793 
    116 H116      -76.0368   20.5133  -71.8762 H         1 UNK         0.0793 
    117 H117      -78.2349   21.3964  -72.7535 H         1 UNK         0.3047 
    118 H118      -80.4922   22.3241  -73.8373 H         1 UNK         0.0822 
    119 H119      -80.3119   24.2938  -72.3196 H         1 UNK         0.0807 
    120 H120      -78.7106   24.6698  -72.9292 H         1 UNK         0.0807 
    121 H121      -78.9805   23.2284  -71.9561 H         1 UNK         0.0807 
    122 H122      -79.5365   23.9054  -75.9093 H         1 UNK         0.2946 
    123 H123      -80.4216   25.6871  -76.8829 H         1 UNK         0.1144 
    124 H124      -82.5466   25.6584  -78.2141 H         1 UNK         0.0793 
    125 H125      -83.4123   24.9567  -76.8483 H         1 UNK         0.0793 
    126 H126      -82.1480   24.0397  -77.6587 H         1 UNK         0.0793 
    127 H127      -82.3338   26.9646  -75.0688 H         1 UNK         0.2896 
@<TRIPOS>BOND
     1    1    2 1    
     2    1   67 1    
     3    1   68 1    
     4    1   69 1    
     5    2    3 2    
     6    2    4 am   BACKBONE|DICT|INTERRES
     7    4    5 1    
     8    4   70 1    
     9    5    6 1    
    10    5   65 1    
    11    5   71 1    
    12    6    7 1    
    13    6   72 1    
    14    6   73 1    
    15    7    8 1    
    16    8    9 1    
    17    8   74 1    
    18    8   75 1    
    19    9   10 ar   
    20    9   14 ar   
    21   10   11 ar   
    22   10   76 1    
    23   11   12 ar   
    24   11   48 1    
    25   12   13 ar   
    26   12   77 1    
    27   13   14 ar   
    28   13   15 1    
    29   14   78 1    
    30   15   16 1    
    31   15   79 1    
    32   15   80 1    
    33   16   17 1    
    34   17   18 1    
    35   17   81 1    
    36   17   82 1    
    37   18   19 1    
    38   18   22 1    
    39   18   83 1    
    40   19   20 am   BACKBONE|DICT|INTERRES
    41   19   21 2    
    42   20   84 1    
    43   20   85 1    
    44   22   23 am   BACKBONE|DICT|INTERRES
    45   22   86 1    
    46   23   24 2    
    47   23   25 1    
    48   25   26 1    
    49   25   27 1    
    50   25   87 1    
    51   26   88 1    
    52   26   89 1    
    53   26   90 1    
    54   27   28 am   BACKBONE|DICT|INTERRES
    55   27   91 1    
    56   28   29 2    
    57   28   30 1    
    58   30   31 1    
    59   30   32 1    
    60   30   92 1    
    61   31   93 1    
    62   31   94 1    
    63   31   95 1    
    64   32   33 am   BACKBONE|DICT|INTERRES
    65   32   96 1    
    66   33   34 2    
    67   33   35 1    
    68   35   36 1    
    69   35   37 1    
    70   35   97 1    
    71   36   98 1    
    72   36   99 1    
    73   36  100 1    
    74   37   38 am   BACKBONE|DICT|INTERRES
    75   37  101 1    
    76   38   39 2    
    77   38   40 1    
    78   40   41 1    
    79   40   42 1    
    80   40  102 1    
    81   41  103 1    
    82   41  104 1    
    83   41  105 1    
    84   42   43 am   BACKBONE|DICT|INTERRES
    85   42  106 1    
    86   43   44 2    
    87   43   45 1    
    88   45   46 1    
    89   45   49 1    
    90   45  107 1    
    91   46   47 1    
    92   46  108 1    
    93   46  109 1    
    94   47   48 1    
    95   48  110 1    
    96   48  111 1    
    97   49   50 am   BACKBONE|DICT|INTERRES
    98   49  112 1    
    99   50   51 2    
   100   50   52 1    
   101   52   53 1    
   102   52   54 1    
   103   52  113 1    
   104   53  114 1    
   105   53  115 1    
   106   53  116 1    
   107   54   55 am   BACKBONE|DICT|INTERRES
   108   54  117 1    
   109   55   56 2    
   110   55   57 1    
   111   57   58 1    
   112   57   59 1    
   113   57  118 1    
   114   58  119 1    
   115   58  120 1    
   116   58  121 1    
   117   59   60 am   BACKBONE|DICT|INTERRES
   118   59  122 1    
   119   60   61 2    
   120   60   62 1    
   121   62   63 1    
   122   62   64 1    
   123   62  123 1    
   124   63  124 1    
   125   63  125 1    
   126   63  126 1    
   127   64   65 am   BACKBONE|DICT|INTERRES
   128   64  127 1    
   129   65   66 2    
@<TRIPOS>SUBSTRUCTURE
     1 UNK         1 GROUP             0       ****    0 ROOT    
