@<TRIPOS>MOLECULE
3R135
127   129    1
SMALL
USER_CHARGES


@<TRIPOS>ATOM
      1 CA        -79.4091   22.7917  -70.2569 C.3       0 UNK        -0.1998 
      2 C         -80.3144   23.7648  -70.9960 C.2       0 UNK         0.4909 
      3 O         -81.0769   23.3488  -71.8692 O.2       0 UNK        -0.5240 
      4 N         -80.2291   25.0602  -70.6634 N.am      1 UNK        -0.4739 
      5 CA        -80.9752   26.1507  -71.3012 C.3       1 UNK         0.0864 
      6 C6        -80.7341   27.4892  -70.5634 C.3       11 UNK        -0.0881 
      7 S7        -81.9217   28.7827  -71.0596 S.3       11 UNK        -0.2682 
      8 C8        -80.9185   30.2938  -70.8845 C.3       11 UNK         0.0289 
      9 C9        -79.7586   30.3510  -71.8707 C.ar      11 UNK        -0.0687 
     10 C10       -80.0035   30.4619  -73.2427 C.ar      11 UNK        -0.0823 
     11 C11       -78.9459   30.5407  -74.1549 C.ar      11 UNK        -0.0830 
     12 C12       -77.6302   30.5169  -73.6759 C.ar      11 UNK        -0.1021 
     13 C13       -77.3710   30.3992  -72.3077 C.ar      11 UNK        -0.0753 
     14 C14       -78.4391   30.3205  -71.4097 C.ar      11 UNK        -0.0933 
     15 C15       -75.9379   30.3890  -71.7988 C.3       11 UNK         0.0166 
     16 S16       -75.4745   28.7717  -71.1073 S.3       11 UNK        -0.2615 
     17 C17       -73.6894   29.0413  -70.8149 C.3       11 UNK        -0.0865 
     18 CA        -72.7682   28.1615  -71.7035 C.3       10 UNK         0.0862 
     19 C         -72.6495   26.6966  -71.1958 C.2       10 UNK         0.5551 
     20 N         -72.9809   25.6806  -71.9843 N.am      10 UNK        -0.7319 
     21 O         -72.2106   26.4753  -70.0696 O.2       10 UNK        -0.5018 
     22 N         -73.0813   28.2722  -73.1347 N.am      10 UNK        -0.4509 
     23 C         -72.6164   29.2063  -73.9666 C.2       10 UNK         0.4899 
     24 O         -71.9170   30.1568  -73.6104 O.2       10 UNK        -0.4839 
     25 CA        -72.9867   29.0226  -75.4534 C.3       9 UNK         0.0222 
     26 CB        -72.2907   30.0438  -76.3762 C.3       9 UNK        -0.1966 
     27 N         -72.7520   27.6555  -75.9430 N.am      9 UNK        -0.4218 
     28 C         -71.6078   26.9545  -75.8862 C.2       9 UNK         0.5020 
     29 O         -70.5607   27.3598  -75.3796 O.2       9 UNK        -0.5274 
     30 CA        -71.6305   25.5676  -76.5452 C.3       8 UNK         0.0270 
     31 CB        -72.4049   24.5462  -75.6948 C.3       8 UNK        -0.1976 
     32 N         -72.1905   25.6343  -77.8972 N.am      8 UNK        -0.4313 
     33 C         -71.5038   26.0679  -78.9655 C.2       8 UNK         0.5041 
     34 O         -70.3161   26.3930  -78.9253 O.2       8 UNK        -0.5577 
     35 CA        -72.2391   26.1397  -80.3164 C.3       7 UNK         0.0284 
     36 CB        -71.8892   24.9179  -81.1823 C.3       7 UNK        -0.1958 
     37 N         -73.6943   26.2370  -80.1942 N.am      7 UNK        -0.4454 
     38 C         -74.3581   27.3304  -79.7968 C.2       7 UNK         0.5089 
     39 O         -73.8103   28.3934  -79.5016 O.2       7 UNK        -0.5125 
     40 CA        -75.8950   27.2290  -79.7060 C.3       6 UNK         0.0408 
     41 CB        -76.4718   25.8649  -80.1505 C.3       6 UNK        -0.1791 
     42 N         -76.3989   27.5677  -78.3712 N.am      6 UNK        -0.4762 
     43 C         -76.0424   27.0163  -77.2016 C.2       6 UNK         0.5007 
     44 O         -75.1340   26.1869  -77.1023 O.2       6 UNK        -0.5032 
     45 CA        -76.8194   27.4781  -75.9419 C.3       5 UNK         0.0783 
     46 C46       -78.2023   28.1182  -76.2522 C.3       11 UNK        -0.0857 
     47 S47       -78.0661   29.8659  -76.7609 S.3       11 UNK        -0.2512 
     48 C48       -79.2576   30.6845  -75.6442 C.3       11 UNK         0.0225 
     49 N         -76.9743   26.3820  -74.9877 N.am      5 UNK        -0.4615 
     50 C         -76.0494   25.9213  -74.1365 C.2       4 UNK         0.5053 
     51 O         -74.9142   26.3877  -74.0389 O.2       4 UNK        -0.5105 
     52 CA        -76.4505   24.7422  -73.2310 C.3       4 UNK         0.0263 
     53 CB        -76.6029   25.2051  -71.7720 C.3       4 UNK        -0.1981 
     54 N         -77.7026   24.1164  -73.6636 N.am      4 UNK        -0.4224 
     55 C         -77.7893   23.1134  -74.5497 C.2       3 UNK         0.4895 
     56 O         -76.8114   22.5388  -75.0281 O.2       3 UNK        -0.5091 
     57 CA        -79.1984   22.6743  -74.9909 C.3       3 UNK         0.0250 
     58 CB        -79.6143   21.3809  -74.2714 C.3       3 UNK        -0.1996 
     59 N         -80.2177   23.7070  -74.7760 N.am      3 UNK        -0.4254 
     60 C         -80.3602   24.7907  -75.5555 C.2       2 UNK         0.5004 
     61 O         -79.6775   25.0008  -76.5571 O.2       2 UNK        -0.5226 
     62 CA        -81.3984   25.8461  -75.1267 C.3       2 UNK         0.0269 
     63 CB        -82.7514   25.5759  -75.8030 C.3       2 UNK        -0.1926 
     64 N         -81.5890   25.9370  -73.6751 N.am      2 UNK        -0.4687 
     65 C         -80.6189   26.2358  -72.7998 C.2       1 UNK         0.5165 
     66 O         -79.4625   26.4930  -73.1337 O.2       1 UNK        -0.5079 
     67 H67       -78.6894   22.3518  -70.9466 H         1 UNK         0.0900 
     68 H68       -80.0004   21.9869  -69.8211 H         1 UNK         0.0900 
     69 H69       -78.8563   23.2789  -69.4539 H         1 UNK         0.0900 
     70 H70       -79.5714   25.3422  -69.9509 H         1 UNK         0.2959 
     71 H71       -82.0348   25.9016  -71.2093 H         1 UNK         0.1079 
     72 H72       -80.8457   27.3480  -69.4872 H         1 UNK         0.0837 
     73 H73       -79.7085   27.8300  -70.7161 H         1 UNK         0.0837 
     74 H74       -81.5608   31.1610  -71.0436 H         1 UNK         0.0685 
     75 H75       -80.5604   30.3642  -69.8561 H         1 UNK         0.0685 
     76 H76       -81.0252   30.4899  -73.5965 H         1 UNK         0.1434 
     77 H77       -76.8031   30.5956  -74.3672 H         1 UNK         0.1329 
     78 H78       -78.2376   30.2374  -70.3504 H         1 UNK         0.1335 
     79 H79       -75.2458   30.6431  -72.6034 H         1 UNK         0.0680 
     80 H80       -75.8202   31.1566  -71.0325 H         1 UNK         0.0680 
     81 H81       -73.4815   28.8755  -69.7562 H         1 UNK         0.1032 
     82 H82       -73.4486   30.0911  -70.9879 H         1 UNK         0.1032 
     83 H83       -71.7546   28.5471  -71.5764 H         1 UNK         0.0461 
     84 H84       -72.8718   24.7416  -71.6375 H         1 UNK         0.3453 
     85 H85       -73.4321   25.8424  -72.8751 H         1 UNK         0.3453 
     86 H86       -73.7026   27.5546  -73.5045 H         1 UNK         0.2984 
     87 H87       -74.0600   29.1976  -75.5242 H         1 UNK         0.0554 
     88 H88       -72.5349   31.0661  -76.0851 H         1 UNK         0.0847 
     89 H89       -71.2052   29.9446  -76.3415 H         1 UNK         0.0847 
     90 H90       -72.6051   29.9187  -77.4125 H         1 UNK         0.0847 
     91 H91       -73.5580   27.1810  -76.3385 H         1 UNK         0.3141 
     92 H92       -70.5979   25.2174  -76.6122 H         1 UNK         0.0743 
     93 H93       -72.0136   24.5105  -74.6773 H         1 UNK         0.0784 
     94 H94       -73.4655   24.7848  -75.6273 H         1 UNK         0.0784 
     95 H95       -72.3178   23.5422  -76.1101 H         1 UNK         0.0784 
     96 H96       -73.1807   25.4448  -77.9933 H         1 UNK         0.3213 
     97 H97       -71.8816   27.0344  -80.8313 H         1 UNK         0.0855 
     98 H98       -70.8102   24.8350  -81.3214 H         1 UNK         0.0814 
     99 H99       -72.3358   24.9918  -82.1740 H         1 UNK         0.0814 
    100 H100      -72.2302   23.9875  -80.7266 H         1 UNK         0.0814 
    101 H101      -74.2260   25.4065  -80.4112 H         1 UNK         0.3105 
    102 H102      -76.2870   27.9882  -80.3842 H         1 UNK         0.0547 
    103 H103      -76.1933   25.6289  -81.1784 H         1 UNK         0.0837 
    104 H104      -76.1366   25.0465  -79.5118 H         1 UNK         0.0837 
    105 H105      -77.5614   25.8754  -80.1167 H         1 UNK         0.0837 
    106 H106      -77.0994   28.2981  -78.3418 H         1 UNK         0.3020 
    107 H107      -76.2001   28.2313  -75.4521 H         1 UNK         0.1245 
    108 H108      -78.7520   27.5554  -77.0091 H         1 UNK         0.0781 
    109 H109      -78.8297   28.0780  -75.3602 H         1 UNK         0.0781 
    110 H110      -80.2515   30.2900  -75.8620 H         1 UNK         0.0836 
    111 H111      -79.2882   31.7469  -75.8888 H         1 UNK         0.0836 
    112 H112      -77.8756   25.9283  -74.9892 H         1 UNK         0.3022 
    113 H113      -75.6416   24.0097  -73.2711 H         1 UNK         0.0747 
    114 H114      -76.8663   24.3757  -71.1165 H         1 UNK         0.0793 
    115 H115      -75.6720   25.6282  -71.3957 H         1 UNK         0.0793 
    116 H116      -77.3657   25.9767  -71.6664 H         1 UNK         0.0793 
    117 H117      -78.5514   24.5777  -73.3591 H         1 UNK         0.3047 
    118 H118      -79.1498   22.4597  -76.0609 H         1 UNK         0.0822 
    119 H119      -80.5965   21.0412  -74.6004 H         1 UNK         0.0807 
    120 H120      -79.6484   21.5088  -73.1898 H         1 UNK         0.0807 
    121 H121      -78.9077   20.5763  -74.4795 H         1 UNK         0.0807 
    122 H122      -80.7895   23.6184  -73.9415 H         1 UNK         0.2946 
    123 H123      -81.0320   26.8160  -75.4702 H         1 UNK         0.1144 
    124 H124      -83.4688   26.3679  -75.5872 H         1 UNK         0.0793 
    125 H125      -83.1849   24.6298  -75.4761 H         1 UNK         0.0793 
    126 H126      -82.6424   25.5273  -76.8875 H         1 UNK         0.0793 
    127 H127      -82.5067   25.7020  -73.3243 H         1 UNK         0.2896 
@<TRIPOS>BOND
     1    1    2 1    
     2    1   67 1    
     3    1   68 1    
     4    1   69 1    
     5    2    3 2    
     6    2    4 am   BACKBONE|DICT|INTERRES
     7    4    5 1    
     8    4   70 1    
     9    5    6 1    
    10    5   65 1    
    11    5   71 1    
    12    6    7 1    
    13    6   72 1    
    14    6   73 1    
    15    7    8 1    
    16    8    9 1    
    17    8   74 1    
    18    8   75 1    
    19    9   10 ar   
    20    9   14 ar   
    21   10   11 ar   
    22   10   76 1    
    23   11   12 ar   
    24   11   48 1    
    25   12   13 ar   
    26   12   77 1    
    27   13   14 ar   
    28   13   15 1    
    29   14   78 1    
    30   15   16 1    
    31   15   79 1    
    32   15   80 1    
    33   16   17 1    
    34   17   18 1    
    35   17   81 1    
    36   17   82 1    
    37   18   19 1    
    38   18   22 1    
    39   18   83 1    
    40   19   20 am   BACKBONE|DICT|INTERRES
    41   19   21 2    
    42   20   84 1    
    43   20   85 1    
    44   22   23 am   BACKBONE|DICT|INTERRES
    45   22   86 1    
    46   23   24 2    
    47   23   25 1    
    48   25   26 1    
    49   25   27 1    
    50   25   87 1    
    51   26   88 1    
    52   26   89 1    
    53   26   90 1    
    54   27   28 am   BACKBONE|DICT|INTERRES
    55   27   91 1    
    56   28   29 2    
    57   28   30 1    
    58   30   31 1    
    59   30   32 1    
    60   30   92 1    
    61   31   93 1    
    62   31   94 1    
    63   31   95 1    
    64   32   33 am   BACKBONE|DICT|INTERRES
    65   32   96 1    
    66   33   34 2    
    67   33   35 1    
    68   35   36 1    
    69   35   37 1    
    70   35   97 1    
    71   36   98 1    
    72   36   99 1    
    73   36  100 1    
    74   37   38 am   BACKBONE|DICT|INTERRES
    75   37  101 1    
    76   38   39 2    
    77   38   40 1    
    78   40   41 1    
    79   40   42 1    
    80   40  102 1    
    81   41  103 1    
    82   41  104 1    
    83   41  105 1    
    84   42   43 am   BACKBONE|DICT|INTERRES
    85   42  106 1    
    86   43   44 2    
    87   43   45 1    
    88   45   46 1    
    89   45   49 1    
    90   45  107 1    
    91   46   47 1    
    92   46  108 1    
    93   46  109 1    
    94   47   48 1    
    95   48  110 1    
    96   48  111 1    
    97   49   50 am   BACKBONE|DICT|INTERRES
    98   49  112 1    
    99   50   51 2    
   100   50   52 1    
   101   52   53 1    
   102   52   54 1    
   103   52  113 1    
   104   53  114 1    
   105   53  115 1    
   106   53  116 1    
   107   54   55 am   BACKBONE|DICT|INTERRES
   108   54  117 1    
   109   55   56 2    
   110   55   57 1    
   111   57   58 1    
   112   57   59 1    
   113   57  118 1    
   114   58  119 1    
   115   58  120 1    
   116   58  121 1    
   117   59   60 am   BACKBONE|DICT|INTERRES
   118   59  122 1    
   119   60   61 2    
   120   60   62 1    
   121   62   63 1    
   122   62   64 1    
   123   62  123 1    
   124   63  124 1    
   125   63  125 1    
   126   63  126 1    
   127   64   65 am   BACKBONE|DICT|INTERRES
   128   64  127 1    
   129   65   66 2    
@<TRIPOS>SUBSTRUCTURE
     1 UNK         1 GROUP             0       ****    0 ROOT    
