@<TRIPOS>MOLECULE
3R135
127   129    1
SMALL
USER_CHARGES


@<TRIPOS>ATOM
      1 CA        -85.4075   27.8116  -73.0403 C.3       0 UNK        -0.1998 
      2 C         -83.9171   27.7125  -73.3264 C.2       0 UNK         0.4909 
      3 O         -83.3939   28.4781  -74.1376 O.2       0 UNK        -0.5240 
      4 N         -83.2243   26.7698  -72.6752 N.am      1 UNK        -0.4739 
      5 CA        -81.7825   26.5291  -72.8115 C.3       1 UNK         0.0864 
      6 C6        -81.1805   25.8790  -71.5383 C.3       11 UNK        -0.0881 
      7 S7        -81.4760   26.8619  -70.0288 S.3       11 UNK        -0.2682 
      8 C8        -79.7777   27.1046  -69.3971 C.3       11 UNK         0.0289 
      9 C9        -78.8712   28.0114  -70.2338 C.ar      11 UNK        -0.0687 
     10 C10       -79.3687   28.9178  -71.1779 C.ar      11 UNK        -0.0823 
     11 C11       -78.5031   29.7365  -71.9068 C.ar      11 UNK        -0.0830 
     12 C12       -77.1301   29.6849  -71.6517 C.ar      11 UNK        -0.1021 
     13 C13       -76.6070   28.7803  -70.7181 C.ar      11 UNK        -0.0753 
     14 C14       -77.4902   27.9494  -70.0211 C.ar      11 UNK        -0.0933 
     15 C15       -75.1096   28.6479  -70.4212 C.3       11 UNK         0.0166 
     16 S16       -74.0159   29.8699  -71.2269 S.3       11 UNK        -0.2615 
     17 C17       -73.8823   29.1939  -72.9192 C.3       11 UNK        -0.0865 
     18 CA        -72.4137   29.1460  -73.4215 C.3       10 UNK         0.0862 
     19 C         -71.6482   27.8747  -72.9498 C.2       10 UNK         0.5551 
     20 N         -71.4116   27.7406  -71.6532 N.am      10 UNK        -0.7319 
     21 O         -71.2758   27.0063  -73.7394 O.2       10 UNK        -0.5018 
     22 N         -72.3503   29.2921  -74.8815 N.am      10 UNK        -0.4509 
     23 C         -71.3349   29.8702  -75.5343 C.2       10 UNK         0.4899 
     24 O         -70.4709   30.5660  -74.9970 O.2       10 UNK        -0.4839 
     25 CA        -71.2495   29.5461  -77.0347 C.3       9 UNK         0.0222 
     26 CB        -70.2834   30.4662  -77.8117 C.3       9 UNK        -0.1966 
     27 N         -70.9180   28.1271  -77.2161 N.am      9 UNK        -0.4218 
     28 C         -69.7988   27.4862  -76.8346 C.2       9 UNK         0.5020 
     29 O         -68.7895   28.0484  -76.4057 O.2       9 UNK        -0.5274 
     30 CA        -69.8339   25.9504  -76.9177 C.3       8 UNK         0.0270 
     31 CB        -68.6547   25.2752  -76.1910 C.3       8 UNK        -0.1976 
     32 N         -71.0902   25.4737  -76.3431 N.am      8 UNK        -0.4313 
     33 C         -71.9367   24.6263  -76.9405 C.2       8 UNK         0.5041 
     34 O         -71.6903   24.0333  -77.9927 O.2       8 UNK        -0.5577 
     35 CA        -73.3175   24.4330  -76.2831 C.3       7 UNK         0.0284 
     36 CB        -73.3592   24.7795  -74.7823 C.3       7 UNK        -0.1958 
     37 N         -74.4195   25.1295  -76.9626 N.am      7 UNK        -0.4454 
     38 C         -74.4141   26.3120  -77.6030 C.2       7 UNK         0.5089 
     39 O         -73.4162   26.9999  -77.8193 O.2       7 UNK        -0.5125 
     40 CA        -75.7882   26.8668  -78.0137 C.3       6 UNK         0.0408 
     41 CB        -76.4470   26.0025  -79.1007 C.3       6 UNK        -0.1791 
     42 N         -76.6892   27.0079  -76.8678 N.am      6 UNK        -0.4762 
     43 C         -76.4442   27.7625  -75.7833 C.2       6 UNK         0.5007 
     44 O         -75.4450   28.4704  -75.6513 O.2       6 UNK        -0.5032 
     45 CA        -77.4692   27.6751  -74.6375 C.3       5 UNK         0.0783 
     46 C46       -78.7089   28.5727  -74.8827 C.3       11 UNK        -0.0857 
     47 S47       -78.3437   30.3444  -74.6281 S.3       11 UNK        -0.2512 
     48 C48       -79.0546   30.6700  -72.9778 C.3       11 UNK         0.0225 
     49 N         -77.8311   26.2746  -74.4084 N.am      5 UNK        -0.4615 
     50 C         -77.0978   25.4287  -73.6699 C.2       4 UNK         0.5053 
     51 O         -76.1512   25.7857  -72.9697 O.2       4 UNK        -0.5105 
     52 CA        -77.4427   23.9288  -73.7349 C.3       4 UNK         0.0263 
     53 CB        -78.0946   23.4408  -72.4311 C.3       4 UNK        -0.1981 
     54 N         -78.2977   23.5829  -74.8737 N.am      4 UNK        -0.4224 
     55 C         -77.8424   23.4011  -76.1225 C.2       3 UNK         0.4895 
     56 O         -76.6531   23.4657  -76.4318 O.2       3 UNK        -0.5091 
     57 CA        -78.8825   23.1476  -77.2288 C.3       3 UNK         0.0250 
     58 CB        -79.1363   21.6407  -77.3899 C.3       3 UNK        -0.1996 
     59 N         -80.1586   23.8369  -77.0194 N.am      3 UNK        -0.4254 
     60 C         -80.3107   25.1623  -76.8912 C.2       2 UNK         0.5004 
     61 O         -79.3747   25.9617  -76.9414 O.2       2 UNK        -0.5226 
     62 CA        -81.7269   25.6908  -76.5965 C.3       2 UNK         0.0269 
     63 CB        -82.8460   24.6432  -76.7947 C.3       2 UNK        -0.1926 
     64 N         -81.8242   26.2762  -75.2532 N.am      2 UNK        -0.4687 
     65 C         -81.4882   25.7062  -74.0858 C.2       1 UNK         0.5165 
     66 O         -80.9952   24.5796  -73.9943 O.2       1 UNK        -0.5079 
     67 H67       -85.6511   28.8044  -72.6630 H         1 UNK         0.0900 
     68 H68       -85.7300   27.0792  -72.3005 H         1 UNK         0.0900 
     69 H69       -85.9766   27.6447  -73.9544 H         1 UNK         0.0900 
     70 H70       -83.7043   26.1603  -72.0280 H         1 UNK         0.2959 
     71 H71       -81.2894   27.4923  -72.9459 H         1 UNK         0.1079 
     72 H72       -81.5901   24.8795  -71.3796 H         1 UNK         0.0837 
     73 H73       -80.1043   25.7548  -71.6644 H         1 UNK         0.0837 
     74 H74       -79.3121   26.1242  -69.2824 H         1 UNK         0.0685 
     75 H75       -79.8481   27.5294  -68.3950 H         1 UNK         0.0685 
     76 H76       -80.4319   28.9947  -71.3510 H         1 UNK         0.1434 
     77 H77       -76.4798   30.3378  -72.2145 H         1 UNK         0.1329 
     78 H78       -77.0965   27.2513  -69.2945 H         1 UNK         0.1335 
     79 H79       -74.9654   28.7420  -69.3439 H         1 UNK         0.0680 
     80 H80       -74.7793   27.6421  -70.6866 H         1 UNK         0.0680 
     81 H81       -74.3596   28.2140  -72.9913 H         1 UNK         0.1032 
     82 H82       -74.4714   29.8535  -73.5582 H         1 UNK         0.1032 
     83 H83       -71.8881   29.9997  -72.9889 H         1 UNK         0.0461 
     84 H84       -70.9196   26.9251  -71.3246 H         1 UNK         0.3453 
     85 H85       -71.7345   28.4364  -70.9985 H         1 UNK         0.3453 
     86 H86       -73.0165   28.7392  -75.4054 H         1 UNK         0.2984 
     87 H87       -72.2473   29.6888  -77.4530 H         1 UNK         0.0554 
     88 H88       -70.5982   31.5075  -77.7350 H         1 UNK         0.0847 
     89 H89       -70.2601   30.2110  -78.8710 H         1 UNK         0.0847 
     90 H90       -69.2630   30.4111  -77.4318 H         1 UNK         0.0847 
     91 H91       -71.7060   27.5563  -77.5244 H         1 UNK         0.3141 
     92 H92       -69.7761   25.6975  -77.9784 H         1 UNK         0.0743 
     93 H93       -67.7001   25.5896  -76.6148 H         1 UNK         0.0784 
     94 H94       -68.6428   25.5258  -75.1293 H         1 UNK         0.0784 
     95 H95       -68.7058   24.1899  -76.2789 H         1 UNK         0.0784 
     96 H96       -71.3685   25.9289  -75.4767 H         1 UNK         0.3213 
     97 H97       -73.5332   23.3668  -76.3704 H         1 UNK         0.0855 
     98 H98       -73.4252   25.8547  -74.6168 H         1 UNK         0.0814 
     99 H99       -72.4855   24.4020  -74.2491 H         1 UNK         0.0814 
    100 H100      -74.2311   24.3290  -74.3102 H         1 UNK         0.0814 
    101 H101      -75.3159   24.6546  -76.8714 H         1 UNK         0.3105 
    102 H102      -75.6337   27.8649  -78.4286 H         1 UNK         0.0547 
    103 H103      -75.8062   25.9312  -79.9804 H         1 UNK         0.0837 
    104 H104      -76.6386   24.9869  -78.7562 H         1 UNK         0.0837 
    105 H105      -77.3964   26.4290  -79.4248 H         1 UNK         0.0837 
    106 H106      -77.5702   26.5013  -76.9116 H         1 UNK         0.3020 
    107 H107      -76.9648   28.0371  -73.7409 H         1 UNK         0.1245 
    108 H108      -79.5142   28.2899  -74.2065 H         1 UNK         0.0781 
    109 H109      -79.1081   28.4353  -75.8892 H         1 UNK         0.0781 
    110 H110      -78.8379   31.7013  -72.6963 H         1 UNK         0.0836 
    111 H111      -80.1411   30.5919  -73.0438 H         1 UNK         0.0836 
    112 H112      -78.5566   25.8997  -75.0063 H         1 UNK         0.3022 
    113 H113      -76.4946   23.3969  -73.8391 H         1 UNK         0.0747 
    114 H114      -77.5129   23.7463  -71.5602 H         1 UNK         0.0793 
    115 H115      -78.1590   22.3529  -72.4102 H         1 UNK         0.0793 
    116 H116      -79.1022   23.8311  -72.3063 H         1 UNK         0.0793 
    117 H117      -79.2987   23.5756  -74.7041 H         1 UNK         0.3047 
    118 H118      -78.4622   23.5225  -78.1637 H         1 UNK         0.0822 
    119 H119      -78.2030   21.1053  -77.5714 H         1 UNK         0.0807 
    120 H120      -79.7936   21.4361  -78.2352 H         1 UNK         0.0807 
    121 H121      -79.5911   21.2093  -76.4972 H         1 UNK         0.0807 
    122 H122      -80.9789   23.2548  -76.9307 H         1 UNK         0.2946 
    123 H123      -81.8981   26.5005  -77.3079 H         1 UNK         0.1144 
    124 H124      -82.8215   24.2211  -77.8005 H         1 UNK         0.0793 
    125 H125      -83.8284   25.0984  -76.6680 H         1 UNK         0.0793 
    126 H126      -82.7758   23.8203  -76.0822 H         1 UNK         0.0793 
    127 H127      -82.2452   27.1994  -75.2021 H         1 UNK         0.2896 
@<TRIPOS>BOND
     1    1    2 1    
     2    1   67 1    
     3    1   68 1    
     4    1   69 1    
     5    2    3 2    
     6    2    4 am   BACKBONE|DICT|INTERRES
     7    4    5 1    
     8    4   70 1    
     9    5    6 1    
    10    5   65 1    
    11    5   71 1    
    12    6    7 1    
    13    6   72 1    
    14    6   73 1    
    15    7    8 1    
    16    8    9 1    
    17    8   74 1    
    18    8   75 1    
    19    9   10 ar   
    20    9   14 ar   
    21   10   11 ar   
    22   10   76 1    
    23   11   12 ar   
    24   11   48 1    
    25   12   13 ar   
    26   12   77 1    
    27   13   14 ar   
    28   13   15 1    
    29   14   78 1    
    30   15   16 1    
    31   15   79 1    
    32   15   80 1    
    33   16   17 1    
    34   17   18 1    
    35   17   81 1    
    36   17   82 1    
    37   18   19 1    
    38   18   22 1    
    39   18   83 1    
    40   19   20 am   BACKBONE|DICT|INTERRES
    41   19   21 2    
    42   20   84 1    
    43   20   85 1    
    44   22   23 am   BACKBONE|DICT|INTERRES
    45   22   86 1    
    46   23   24 2    
    47   23   25 1    
    48   25   26 1    
    49   25   27 1    
    50   25   87 1    
    51   26   88 1    
    52   26   89 1    
    53   26   90 1    
    54   27   28 am   BACKBONE|DICT|INTERRES
    55   27   91 1    
    56   28   29 2    
    57   28   30 1    
    58   30   31 1    
    59   30   32 1    
    60   30   92 1    
    61   31   93 1    
    62   31   94 1    
    63   31   95 1    
    64   32   33 am   BACKBONE|DICT|INTERRES
    65   32   96 1    
    66   33   34 2    
    67   33   35 1    
    68   35   36 1    
    69   35   37 1    
    70   35   97 1    
    71   36   98 1    
    72   36   99 1    
    73   36  100 1    
    74   37   38 am   BACKBONE|DICT|INTERRES
    75   37  101 1    
    76   38   39 2    
    77   38   40 1    
    78   40   41 1    
    79   40   42 1    
    80   40  102 1    
    81   41  103 1    
    82   41  104 1    
    83   41  105 1    
    84   42   43 am   BACKBONE|DICT|INTERRES
    85   42  106 1    
    86   43   44 2    
    87   43   45 1    
    88   45   46 1    
    89   45   49 1    
    90   45  107 1    
    91   46   47 1    
    92   46  108 1    
    93   46  109 1    
    94   47   48 1    
    95   48  110 1    
    96   48  111 1    
    97   49   50 am   BACKBONE|DICT|INTERRES
    98   49  112 1    
    99   50   51 2    
   100   50   52 1    
   101   52   53 1    
   102   52   54 1    
   103   52  113 1    
   104   53  114 1    
   105   53  115 1    
   106   53  116 1    
   107   54   55 am   BACKBONE|DICT|INTERRES
   108   54  117 1    
   109   55   56 2    
   110   55   57 1    
   111   57   58 1    
   112   57   59 1    
   113   57  118 1    
   114   58  119 1    
   115   58  120 1    
   116   58  121 1    
   117   59   60 am   BACKBONE|DICT|INTERRES
   118   59  122 1    
   119   60   61 2    
   120   60   62 1    
   121   62   63 1    
   122   62   64 1    
   123   62  123 1    
   124   63  124 1    
   125   63  125 1    
   126   63  126 1    
   127   64   65 am   BACKBONE|DICT|INTERRES
   128   64  127 1    
   129   65   66 2    
@<TRIPOS>SUBSTRUCTURE
     1 UNK         1 GROUP             0       ****    0 ROOT    
