@<TRIPOS>MOLECULE
3R135
127   129    1
SMALL
USER_CHARGES


@<TRIPOS>ATOM
      1 CA        -80.9373   25.4059  -72.2367 C.3       0 UNK        -0.1998 
      2 C         -81.6203   25.9029  -73.4993 C.2       0 UNK         0.4909 
      3 O         -82.6290   25.3342  -73.9163 O.2       0 UNK        -0.5240 
      4 N         -81.0813   26.9677  -74.1054 N.am      1 UNK        -0.4739 
      5 CA        -81.5631   27.5357  -75.3696 C.3       1 UNK         0.0864 
      6 C6        -81.0806   28.9943  -75.5923 C.3       11 UNK        -0.0881 
      7 S7        -79.2907   29.2387  -75.3037 S.3       11 UNK        -0.2682 
      8 C8        -79.2863   30.1772  -73.7430 C.3       11 UNK         0.0289 
      9 C9        -78.1128   29.7674  -72.8684 C.ar      11 UNK        -0.0687 
     10 C10       -78.2899   28.8175  -71.8610 C.ar      11 UNK        -0.0823 
     11 C11       -77.2138   28.4270  -71.0619 C.ar      11 UNK        -0.0830 
     12 C12       -75.9598   29.0099  -71.2604 C.ar      11 UNK        -0.1021 
     13 C13       -75.7505   29.9276  -72.2984 C.ar      11 UNK        -0.0753 
     14 C14       -76.8462   30.3204  -73.0753 C.ar      11 UNK        -0.0933 
     15 C15       -74.3686   30.4981  -72.6451 C.3       11 UNK         0.0166 
     16 S16       -72.9132   29.6547  -71.9149 S.3       11 UNK        -0.2615 
     17 C17       -73.1830   27.9039  -72.3614 C.3       11 UNK        -0.0865 
     18 CA        -72.0343   27.2438  -73.1611 C.3       10 UNK         0.0862 
     19 C         -72.2969   25.7120  -73.2763 C.2       10 UNK         0.5551 
     20 N         -72.5672   25.1680  -74.4578 N.am      10 UNK        -0.7319 
     21 O         -72.2708   25.0091  -72.2702 O.2       10 UNK        -0.5018 
     22 N         -71.8017   27.9058  -74.4554 N.am      10 UNK        -0.4509 
     23 C         -70.6729   27.7731  -75.1657 C.2       10 UNK         0.4899 
     24 O         -69.6694   27.1905  -74.7529 O.2       10 UNK        -0.4839 
     25 CA        -70.6573   28.3517  -76.5895 C.3       9 UNK         0.0222 
     26 CB        -71.1622   27.3040  -77.5951 C.3       9 UNK        -0.1966 
     27 N         -71.4456   29.5726  -76.7396 N.am      9 UNK        -0.4218 
     28 C         -71.1355   30.7723  -76.2374 C.2       9 UNK         0.5020 
     29 O         -70.1300   30.9902  -75.5602 O.2       9 UNK        -0.5274 
     30 CA        -72.0949   31.9387  -76.5484 C.3       8 UNK         0.0270 
     31 CB        -71.7397   32.5986  -77.8954 C.3       8 UNK        -0.1976 
     32 N         -73.5271   31.6069  -76.4763 N.am      8 UNK        -0.4313 
     33 C         -74.2381   30.7532  -77.2272 C.2       8 UNK         0.5041 
     34 O         -73.7799   30.1041  -78.1708 O.2       8 UNK        -0.5577 
     35 CA        -75.7129   30.5803  -76.8341 C.3       7 UNK         0.0284 
     36 CB        -76.6280   31.3040  -77.8344 C.3       7 UNK        -0.1958 
     37 N         -76.1295   29.1789  -76.7275 N.am      7 UNK        -0.4454 
     38 C         -75.5337   28.2188  -76.0071 C.2       7 UNK         0.5089 
     39 O         -74.4876   28.3634  -75.3710 O.2       7 UNK        -0.5125 
     40 CA        -76.2098   26.8445  -76.0377 C.3       6 UNK         0.0408 
     41 CB        -75.6729   26.0225  -77.2228 C.3       6 UNK        -0.1791 
     42 N         -75.9377   26.1203  -74.7962 N.am      6 UNK        -0.4762 
     43 C         -76.8223   25.3673  -74.1303 C.2       6 UNK         0.5007 
     44 O         -78.0104   25.2481  -74.4593 O.2       6 UNK        -0.5032 
     45 CA        -76.2781   24.5537  -72.9389 C.3       5 UNK         0.0783 
     46 C46       -76.1325   25.3600  -71.6193 C.3       11 UNK        -0.0857 
     47 S47       -77.7066   25.7166  -70.7561 S.3       11 UNK        -0.2512 
     48 C48       -77.3989   27.3489  -70.0060 C.3       11 UNK         0.0225 
     49 N         -77.1345   23.3837  -72.7929 N.am      5 UNK        -0.4615 
     50 C         -76.7638   22.1580  -72.4166 C.2       4 UNK         0.5053 
     51 O         -75.6228   21.8660  -72.0587 O.2       4 UNK        -0.5105 
     52 CA        -77.8518   21.0648  -72.4584 C.3       4 UNK         0.0263 
     53 CB        -78.3906   20.7945  -71.0440 C.3       4 UNK        -0.1981 
     54 N         -78.9776   21.3892  -73.3458 N.am      4 UNK        -0.4224 
     55 C         -78.8980   21.4879  -74.6811 C.2       3 UNK         0.4895 
     56 O         -77.8770   21.2369  -75.3228 O.2       3 UNK        -0.5091 
     57 CA        -80.1370   21.9948  -75.4316 C.3       3 UNK         0.0250 
     58 CB        -81.4191   22.0792  -74.5774 C.3       3 UNK        -0.1996 
     59 N         -79.8097   23.3175  -75.9570 N.am      3 UNK        -0.4254 
     60 C         -79.9877   23.7233  -77.2185 C.2       2 UNK         0.5004 
     61 O         -80.5424   23.0564  -78.0942 O.2       2 UNK        -0.5226 
     62 CA        -79.4384   25.1243  -77.5277 C.3       2 UNK         0.0269 
     63 CB        -79.5806   25.5503  -79.0053 C.3       2 UNK        -0.1926 
     64 N         -79.9844   26.1193  -76.5978 N.am      2 UNK        -0.4687 
     65 C         -81.2293   26.6194  -76.5648 C.2       1 UNK         0.5165 
     66 O         -82.1023   26.3763  -77.3989 O.2       1 UNK        -0.5079 
     67 H67       -80.5626   26.2370  -71.6406 H         1 UNK         0.0900 
     68 H68       -80.1005   24.7571  -72.4919 H         1 UNK         0.0900 
     69 H69       -81.6339   24.8394  -71.6192 H         1 UNK         0.0900 
     70 H70       -80.2347   27.3813  -73.7414 H         1 UNK         0.2959 
     71 H71       -82.6540   27.5701  -75.3146 H         1 UNK         0.1079 
     72 H72       -81.3150   29.3279  -76.6052 H         1 UNK         0.0837 
     73 H73       -81.6458   29.6625  -74.9414 H         1 UNK         0.0837 
     74 H74       -80.2181   30.0177  -73.1984 H         1 UNK         0.0685 
     75 H75       -79.2390   31.2443  -73.9649 H         1 UNK         0.0685 
     76 H76       -79.2610   28.3699  -71.7037 H         1 UNK         0.1434 
     77 H77       -75.1412   28.7102  -70.6234 H         1 UNK         0.1329 
     78 H78       -76.7148   31.0504  -73.8587 H         1 UNK         0.1335 
     79 H79       -74.2426   30.4860  -73.7281 H         1 UNK         0.0680 
     80 H80       -74.3416   31.5460  -72.3442 H         1 UNK         0.0680 
     81 H81       -73.3372   27.3681  -71.4226 H         1 UNK         0.1032 
     82 H82       -74.1149   27.8089  -72.9168 H         1 UNK         0.1032 
     83 H83       -71.1244   27.3514  -72.5674 H         1 UNK         0.0461 
     84 H84       -72.5509   25.7307  -75.2918 H         1 UNK         0.3453 
     85 H85       -72.7055   24.1719  -74.5207 H         1 UNK         0.3453 
     86 H86       -72.6127   28.3518  -74.8749 H         1 UNK         0.2984 
     87 H87       -69.6208   28.5893  -76.8376 H         1 UNK         0.0554 
     88 H88       -71.0506   27.6552  -78.6211 H         1 UNK         0.0847 
     89 H89       -72.2153   27.0676  -77.4372 H         1 UNK         0.0847 
     90 H90       -70.5992   26.3734  -77.5097 H         1 UNK         0.0847 
     91 H91       -72.2942   29.5200  -77.3025 H         1 UNK         0.3141 
     92 H92       -71.9308   32.6849  -75.7691 H         1 UNK         0.0743 
     93 H93       -70.6996   32.9276  -77.9046 H         1 UNK         0.0784 
     94 H94       -71.8685   31.9129  -78.7334 H         1 UNK         0.0784 
     95 H95       -72.3585   33.4762  -78.0824 H         1 UNK         0.0784 
     96 H96       -74.0162   32.0705  -75.7232 H         1 UNK         0.3213 
     97 H97       -75.8611   31.0332  -75.8557 H         1 UNK         0.0855 
     98 H98       -76.3586   32.3576  -77.9208 H         1 UNK         0.0814 
     99 H99       -77.6716   31.2628  -77.5208 H         1 UNK         0.0814 
    100 H100      -76.5577   30.8672  -78.8316 H         1 UNK         0.0814 
    101 H101      -76.9741   28.9377  -77.2244 H         1 UNK         0.3105 
    102 H102      -77.2837   26.9964  -76.1543 H         1 UNK         0.0547 
    103 H103      -76.0617   25.0048  -77.2196 H         1 UNK         0.0837 
    104 H104      -75.9521   26.4774  -78.1739 H         1 UNK         0.0837 
    105 H105      -74.5845   25.9538  -77.2026 H         1 UNK         0.0837 
    106 H106      -74.9937   26.2230  -74.4507 H         1 UNK         0.3020 
    107 H107      -75.2847   24.2049  -73.2318 H         1 UNK         0.1245 
    108 H108      -75.5928   26.2865  -71.8054 H         1 UNK         0.0781 
    109 H109      -75.5068   24.7954  -70.9265 H         1 UNK         0.0781 
    110 H110      -76.5289   27.2846  -69.3505 H         1 UNK         0.0836 
    111 H111      -78.2443   27.6113  -69.3685 H         1 UNK         0.0836 
    112 H112      -78.0815   23.5379  -73.1062 H         1 UNK         0.3022 
    113 H113      -77.3821   20.1512  -72.8289 H         1 UNK         0.0747 
    114 H114      -79.1090   19.9744  -71.0414 H         1 UNK         0.0793 
    115 H115      -77.5826   20.5166  -70.3657 H         1 UNK         0.0793 
    116 H116      -78.8799   21.6741  -70.6233 H         1 UNK         0.0793 
    117 H117      -79.8600   21.5958  -72.9003 H         1 UNK         0.3047 
    118 H118      -80.3141   21.2937  -76.2502 H         1 UNK         0.0822 
    119 H119      -81.6887   21.1039  -74.1699 H         1 UNK         0.0807 
    120 H120      -82.2628   22.4155  -75.1807 H         1 UNK         0.0807 
    121 H121      -81.3207   22.7777  -73.7466 H         1 UNK         0.0807 
    122 H122      -79.2974   23.9350  -75.3349 H         1 UNK         0.2946 
    123 H123      -78.3716   25.0699  -77.3180 H         1 UNK         0.1144 
    124 H124      -80.6177   25.5408  -79.3407 H         1 UNK         0.0793 
    125 H125      -79.0295   24.8702  -79.6557 H         1 UNK         0.0793 
    126 H126      -79.1817   26.5511  -79.1697 H         1 UNK         0.0793 
    127 H127      -79.3789   26.3503  -75.8188 H         1 UNK         0.2896 
@<TRIPOS>BOND
     1    1    2 1    
     2    1   67 1    
     3    1   68 1    
     4    1   69 1    
     5    2    3 2    
     6    2    4 am   BACKBONE|DICT|INTERRES
     7    4    5 1    
     8    4   70 1    
     9    5    6 1    
    10    5   65 1    
    11    5   71 1    
    12    6    7 1    
    13    6   72 1    
    14    6   73 1    
    15    7    8 1    
    16    8    9 1    
    17    8   74 1    
    18    8   75 1    
    19    9   10 ar   
    20    9   14 ar   
    21   10   11 ar   
    22   10   76 1    
    23   11   12 ar   
    24   11   48 1    
    25   12   13 ar   
    26   12   77 1    
    27   13   14 ar   
    28   13   15 1    
    29   14   78 1    
    30   15   16 1    
    31   15   79 1    
    32   15   80 1    
    33   16   17 1    
    34   17   18 1    
    35   17   81 1    
    36   17   82 1    
    37   18   19 1    
    38   18   22 1    
    39   18   83 1    
    40   19   20 am   BACKBONE|DICT|INTERRES
    41   19   21 2    
    42   20   84 1    
    43   20   85 1    
    44   22   23 am   BACKBONE|DICT|INTERRES
    45   22   86 1    
    46   23   24 2    
    47   23   25 1    
    48   25   26 1    
    49   25   27 1    
    50   25   87 1    
    51   26   88 1    
    52   26   89 1    
    53   26   90 1    
    54   27   28 am   BACKBONE|DICT|INTERRES
    55   27   91 1    
    56   28   29 2    
    57   28   30 1    
    58   30   31 1    
    59   30   32 1    
    60   30   92 1    
    61   31   93 1    
    62   31   94 1    
    63   31   95 1    
    64   32   33 am   BACKBONE|DICT|INTERRES
    65   32   96 1    
    66   33   34 2    
    67   33   35 1    
    68   35   36 1    
    69   35   37 1    
    70   35   97 1    
    71   36   98 1    
    72   36   99 1    
    73   36  100 1    
    74   37   38 am   BACKBONE|DICT|INTERRES
    75   37  101 1    
    76   38   39 2    
    77   38   40 1    
    78   40   41 1    
    79   40   42 1    
    80   40  102 1    
    81   41  103 1    
    82   41  104 1    
    83   41  105 1    
    84   42   43 am   BACKBONE|DICT|INTERRES
    85   42  106 1    
    86   43   44 2    
    87   43   45 1    
    88   45   46 1    
    89   45   49 1    
    90   45  107 1    
    91   46   47 1    
    92   46  108 1    
    93   46  109 1    
    94   47   48 1    
    95   48  110 1    
    96   48  111 1    
    97   49   50 am   BACKBONE|DICT|INTERRES
    98   49  112 1    
    99   50   51 2    
   100   50   52 1    
   101   52   53 1    
   102   52   54 1    
   103   52  113 1    
   104   53  114 1    
   105   53  115 1    
   106   53  116 1    
   107   54   55 am   BACKBONE|DICT|INTERRES
   108   54  117 1    
   109   55   56 2    
   110   55   57 1    
   111   57   58 1    
   112   57   59 1    
   113   57  118 1    
   114   58  119 1    
   115   58  120 1    
   116   58  121 1    
   117   59   60 am   BACKBONE|DICT|INTERRES
   118   59  122 1    
   119   60   61 2    
   120   60   62 1    
   121   62   63 1    
   122   62   64 1    
   123   62  123 1    
   124   63  124 1    
   125   63  125 1    
   126   63  126 1    
   127   64   65 am   BACKBONE|DICT|INTERRES
   128   64  127 1    
   129   65   66 2    
@<TRIPOS>SUBSTRUCTURE
     1 UNK         1 GROUP             0       ****    0 ROOT    
