@<TRIPOS>MOLECULE
3R135
127   129    1
SMALL
USER_CHARGES


@<TRIPOS>ATOM
      1 CA        -81.6718   29.7477  -76.6073 C.3       0 UNK        -0.1998 
      2 C         -81.1061   28.6341  -75.7403 C.2       0 UNK         0.4909 
      3 O         -80.3310   27.8141  -76.2311 O.2       0 UNK        -0.5240 
      4 N         -81.5032   28.5900  -74.4604 N.am      1 UNK        -0.4739 
      5 CA        -81.0325   27.6554  -73.4229 C.3       1 UNK         0.0864 
      6 C6        -81.7263   27.9171  -72.0626 C.3       11 UNK        -0.0881 
      7 S7        -81.5931   29.6532  -71.5115 S.3       11 UNK        -0.2682 
      8 C8        -80.4946   29.5132  -70.0687 C.3       11 UNK         0.0289 
      9 C9        -79.0453   29.2883  -70.4728 C.ar      11 UNK        -0.0687 
     10 C10       -78.4875   28.0069  -70.4298 C.ar      11 UNK        -0.0823 
     11 C11       -77.1430   27.8054  -70.7611 C.ar      11 UNK        -0.0830 
     12 C12       -76.3544   28.9034  -71.1190 C.ar      11 UNK        -0.1021 
     13 C13       -76.9002   30.1894  -71.1670 C.ar      11 UNK        -0.0753 
     14 C14       -78.2489   30.3738  -70.8502 C.ar      11 UNK        -0.0933 
     15 C15       -76.0211   31.3882  -71.4957 C.3       11 UNK         0.0166 
     16 S16       -76.0540   31.8343  -73.2625 S.3       11 UNK        -0.2615 
     17 C17       -75.0329   30.5300  -74.0286 C.3       11 UNK        -0.0865 
     18 CA        -73.5368   30.9243  -74.1636 C.3       10 UNK         0.0862 
     19 C         -72.7380   30.6060  -72.8703 C.2       10 UNK         0.5551 
     20 N         -72.3224   31.6196  -72.1237 N.am      10 UNK        -0.7319 
     21 O         -72.5303   29.4448  -72.5255 O.2       10 UNK        -0.5018 
     22 N         -72.9263   30.2878  -75.3381 N.am      10 UNK        -0.4509 
     23 C         -71.7375   30.6250  -75.8559 C.2       10 UNK         0.4899 
     24 O         -71.0437   31.5578  -75.4474 O.2       10 UNK        -0.4839 
     25 CA        -71.2654   29.7641  -77.0363 C.3       9 UNK         0.0222 
     26 CB        -69.9235   30.2207  -77.6499 C.3       9 UNK        -0.1966 
     27 N         -71.2641   28.3433  -76.6770 N.am      9 UNK        -0.4218 
     28 C         -70.4163   27.6728  -75.8801 C.2       9 UNK         0.5020 
     29 O         -69.4229   28.1793  -75.3569 O.2       9 UNK        -0.5274 
     30 CA        -70.7175   26.1794  -75.6032 C.3       8 UNK         0.0270 
     31 CB        -70.7534   25.9023  -74.0899 C.3       8 UNK        -0.1976 
     32 N         -71.9717   25.6998  -76.1953 N.am      8 UNK        -0.4313 
     33 C         -72.1891   25.4958  -77.5039 C.2       8 UNK         0.5041 
     34 O         -71.2961   25.5352  -78.3504 O.2       8 UNK        -0.5577 
     35 CA        -73.6448   25.2759  -77.9672 C.3       7 UNK         0.0284 
     36 CB        -73.8674   23.8031  -78.3469 C.3       7 UNK        -0.1958 
     37 N         -74.6700   25.6747  -76.9962 N.am      7 UNK        -0.4454 
     38 C         -74.8195   26.8785  -76.4234 C.2       7 UNK         0.5089 
     39 O         -74.1494   27.8709  -76.7142 O.2       7 UNK        -0.5125 
     40 CA        -75.8264   26.9746  -75.2661 C.3       6 UNK         0.0408 
     41 CB        -77.1369   27.6245  -75.7260 C.3       6 UNK        -0.1791 
     42 N         -76.1115   25.6945  -74.6128 N.am      6 UNK        -0.4762 
     43 C         -75.2245   24.9629  -73.9187 C.2       6 UNK         0.5007 
     44 O         -74.0353   25.2627  -73.8070 O.2       6 UNK        -0.5032 
     45 CA        -75.7514   23.6681  -73.2651 C.3       5 UNK         0.0783 
     46 C46       -76.1992   23.8654  -71.7935 C.3       11 UNK        -0.0857 
     47 S47       -77.4850   25.1402  -71.5446 S.3       11 UNK        -0.2512 
     48 C48       -76.5126   26.4203  -70.6841 C.3       11 UNK         0.0225 
     49 N         -76.7954   23.0451  -74.0857 N.am      5 UNK        -0.4615 
     50 C         -76.5265   22.2414  -75.1231 C.2       4 UNK         0.5053 
     51 O         -75.3879   21.9160  -75.4601 O.2       4 UNK        -0.5105 
     52 CA        -77.7235   21.7179  -75.9311 C.3       4 UNK         0.0263 
     53 CB        -78.4951   20.6509  -75.1372 C.3       4 UNK        -0.1981 
     54 N         -78.6539   22.7543  -76.3854 N.am      4 UNK        -0.4224 
     55 C         -78.3525   23.8476  -77.0976 C.2       3 UNK         0.4895 
     56 O         -77.2030   24.1965  -77.3634 O.2       3 UNK        -0.5091 
     57 CA        -79.5232   24.6987  -77.6253 C.3       3 UNK         0.0250 
     58 CB        -80.0319   24.1519  -78.9729 C.3       3 UNK        -0.1996 
     59 N         -80.6305   24.9115  -76.6818 N.am      3 UNK        -0.4254 
     60 C         -81.4848   24.0198  -76.1524 C.2       2 UNK         0.5004 
     61 O         -81.4457   22.8131  -76.3995 O.2       2 UNK        -0.5226 
     62 CA        -82.5605   24.5544  -75.1817 C.3       2 UNK         0.0269 
     63 CB        -82.9193   23.5310  -74.0824 C.3       2 UNK        -0.1926 
     64 N         -82.2388   25.8615  -74.5915 N.am      2 UNK        -0.4687 
     65 C         -81.1916   26.1682  -73.8078 C.2       1 UNK         0.5165 
     66 O         -80.3592   25.3484  -73.4226 O.2       1 UNK        -0.5079 
     67 H67       -82.3502   30.3940  -76.0508 H         1 UNK         0.0900 
     68 H68       -80.8624   30.3626  -76.9997 H         1 UNK         0.0900 
     69 H69       -82.2185   29.3255  -77.4500 H         1 UNK         0.0900 
     70 H70       -82.1349   29.3027  -74.1220 H         1 UNK         0.2959 
     71 H71       -79.9618   27.8338  -73.2987 H         1 UNK         0.1079 
     72 H72       -81.3171   27.2590  -71.2938 H         1 UNK         0.0837 
     73 H73       -82.7892   27.6750  -72.1255 H         1 UNK         0.0837 
     74 H74       -80.5671   30.4332  -69.4867 H         1 UNK         0.0685 
     75 H75       -80.8451   28.7152  -69.4123 H         1 UNK         0.0685 
     76 H76       -79.0954   27.1649  -70.1284 H         1 UNK         0.1434 
     77 H77       -75.3053   28.7609  -71.3409 H         1 UNK         0.1329 
     78 H78       -78.6753   31.3676  -70.8758 H         1 UNK         0.1335 
     79 H79       -76.3589   32.2511  -70.9198 H         1 UNK         0.0680 
     80 H80       -74.9963   31.2047  -71.1737 H         1 UNK         0.0680 
     81 H81       -75.4619   30.3594  -75.0172 H         1 UNK         0.1032 
     82 H82       -75.1560   29.5896  -73.4953 H         1 UNK         0.1032 
     83 H83       -73.4878   32.0002  -74.3459 H         1 UNK         0.0461 
     84 H84       -71.8108   31.4282  -71.2768 H         1 UNK         0.3453 
     85 H85       -72.4909   32.5734  -72.4032 H         1 UNK         0.3453 
     86 H86       -73.4108   29.4871  -75.7295 H         1 UNK         0.2984 
     87 H87       -72.0236   29.8718  -77.8135 H         1 UNK         0.0554 
     88 H88       -69.6246   29.5760  -78.4763 H         1 UNK         0.0847 
     89 H89       -69.1155   30.2262  -76.9181 H         1 UNK         0.0847 
     90 H90       -70.0049   31.2349  -78.0423 H         1 UNK         0.0847 
     91 H91       -72.0900   27.8407  -76.9818 H         1 UNK         0.3141 
     92 H92       -69.8972   25.6029  -76.0355 H         1 UNK         0.0743 
     93 H93       -70.9500   24.8505  -73.8811 H         1 UNK         0.0784 
     94 H94       -69.8008   26.1514  -73.6207 H         1 UNK         0.0784 
     95 H95       -71.5249   26.4928  -73.5930 H         1 UNK         0.0784 
     96 H96       -72.7591   25.6220  -75.5604 H         1 UNK         0.3213 
     97 H97       -73.7915   25.8880  -78.8592 H         1 UNK         0.0855 
     98 H98       -73.1370   23.4728  -79.0869 H         1 UNK         0.0814 
     99 H99       -74.8562   23.6494  -78.7798 H         1 UNK         0.0814 
    100 H100      -73.7762   23.1465  -77.4806 H         1 UNK         0.0814 
    101 H101      -75.3464   24.9607  -76.7463 H         1 UNK         0.3105 
    102 H102      -75.3753   27.6163  -74.5102 H         1 UNK         0.0547 
    103 H103      -77.8148   27.7884  -74.8881 H         1 UNK         0.0837 
    104 H104      -77.6537   27.0091  -76.4616 H         1 UNK         0.0837 
    105 H105      -76.9548   28.5957  -76.1875 H         1 UNK         0.0837 
    106 H106      -77.0635   25.3624  -74.6608 H         1 UNK         0.3020 
    107 H107      -74.8982   22.9857  -73.2310 H         1 UNK         0.1245 
    108 H108      -75.3310   24.0951  -71.1733 H         1 UNK         0.0781 
    109 H109      -76.5844   22.9230  -71.4011 H         1 UNK         0.0781 
    110 H110      -75.5097   26.4488  -71.1136 H         1 UNK         0.0836 
    111 H111      -76.3943   26.1374  -69.6374 H         1 UNK         0.0836 
    112 H112      -77.7542   23.2692  -73.8590 H         1 UNK         0.3022 
    113 H113      -77.3213   21.2430  -76.8283 H         1 UNK         0.0747 
    114 H114      -79.2623   20.1791  -75.7516 H         1 UNK         0.0793 
    115 H115      -77.8275   19.8603  -74.7912 H         1 UNK         0.0793 
    116 H116      -78.9851   21.0739  -74.2594 H         1 UNK         0.0793 
    117 H117      -79.6464   22.5690  -76.2526 H         1 UNK         0.3047 
    118 H118      -79.1176   25.6930  -77.8170 H         1 UNK         0.0822 
    119 H119      -80.4547   23.1515  -78.8763 H         1 UNK         0.0807 
    120 H120      -79.2194   24.0903  -79.6982 H         1 UNK         0.0807 
    121 H121      -80.7975   24.8001  -79.3993 H         1 UNK         0.0807 
    122 H122      -80.7237   25.8780  -76.3798 H         1 UNK         0.2946 
    123 H123      -83.4527   24.7068  -75.7912 H         1 UNK         0.1144 
    124 H124      -83.3108   22.6100  -74.5163 H         1 UNK         0.0793 
    125 H125      -82.0513   23.2607  -73.4804 H         1 UNK         0.0793 
    126 H126      -83.6852   23.9205  -73.4119 H         1 UNK         0.0793 
    127 H127      -82.8453   26.6238  -74.8623 H         1 UNK         0.2896 
@<TRIPOS>BOND
     1    1    2 1    
     2    1   67 1    
     3    1   68 1    
     4    1   69 1    
     5    2    3 2    
     6    2    4 am   BACKBONE|DICT|INTERRES
     7    4    5 1    
     8    4   70 1    
     9    5    6 1    
    10    5   65 1    
    11    5   71 1    
    12    6    7 1    
    13    6   72 1    
    14    6   73 1    
    15    7    8 1    
    16    8    9 1    
    17    8   74 1    
    18    8   75 1    
    19    9   10 ar   
    20    9   14 ar   
    21   10   11 ar   
    22   10   76 1    
    23   11   12 ar   
    24   11   48 1    
    25   12   13 ar   
    26   12   77 1    
    27   13   14 ar   
    28   13   15 1    
    29   14   78 1    
    30   15   16 1    
    31   15   79 1    
    32   15   80 1    
    33   16   17 1    
    34   17   18 1    
    35   17   81 1    
    36   17   82 1    
    37   18   19 1    
    38   18   22 1    
    39   18   83 1    
    40   19   20 am   BACKBONE|DICT|INTERRES
    41   19   21 2    
    42   20   84 1    
    43   20   85 1    
    44   22   23 am   BACKBONE|DICT|INTERRES
    45   22   86 1    
    46   23   24 2    
    47   23   25 1    
    48   25   26 1    
    49   25   27 1    
    50   25   87 1    
    51   26   88 1    
    52   26   89 1    
    53   26   90 1    
    54   27   28 am   BACKBONE|DICT|INTERRES
    55   27   91 1    
    56   28   29 2    
    57   28   30 1    
    58   30   31 1    
    59   30   32 1    
    60   30   92 1    
    61   31   93 1    
    62   31   94 1    
    63   31   95 1    
    64   32   33 am   BACKBONE|DICT|INTERRES
    65   32   96 1    
    66   33   34 2    
    67   33   35 1    
    68   35   36 1    
    69   35   37 1    
    70   35   97 1    
    71   36   98 1    
    72   36   99 1    
    73   36  100 1    
    74   37   38 am   BACKBONE|DICT|INTERRES
    75   37  101 1    
    76   38   39 2    
    77   38   40 1    
    78   40   41 1    
    79   40   42 1    
    80   40  102 1    
    81   41  103 1    
    82   41  104 1    
    83   41  105 1    
    84   42   43 am   BACKBONE|DICT|INTERRES
    85   42  106 1    
    86   43   44 2    
    87   43   45 1    
    88   45   46 1    
    89   45   49 1    
    90   45  107 1    
    91   46   47 1    
    92   46  108 1    
    93   46  109 1    
    94   47   48 1    
    95   48  110 1    
    96   48  111 1    
    97   49   50 am   BACKBONE|DICT|INTERRES
    98   49  112 1    
    99   50   51 2    
   100   50   52 1    
   101   52   53 1    
   102   52   54 1    
   103   52  113 1    
   104   53  114 1    
   105   53  115 1    
   106   53  116 1    
   107   54   55 am   BACKBONE|DICT|INTERRES
   108   54  117 1    
   109   55   56 2    
   110   55   57 1    
   111   57   58 1    
   112   57   59 1    
   113   57  118 1    
   114   58  119 1    
   115   58  120 1    
   116   58  121 1    
   117   59   60 am   BACKBONE|DICT|INTERRES
   118   59  122 1    
   119   60   61 2    
   120   60   62 1    
   121   62   63 1    
   122   62   64 1    
   123   62  123 1    
   124   63  124 1    
   125   63  125 1    
   126   63  126 1    
   127   64   65 am   BACKBONE|DICT|INTERRES
   128   64  127 1    
   129   65   66 2    
@<TRIPOS>SUBSTRUCTURE
     1 UNK         1 GROUP             0       ****    0 ROOT    
