@<TRIPOS>MOLECULE
3R135
127   129    1
SMALL
USER_CHARGES


@<TRIPOS>ATOM
      1 CA        -80.1972   26.0882  -69.7203 C.3       0 UNK        -0.1998 
      2 C         -81.0380   26.3023  -70.9700 C.2       0 UNK         0.4909 
      3 O         -82.2162   25.9446  -70.9866 O.2       0 UNK        -0.5240 
      4 N         -80.4398   26.8865  -72.0152 N.am      1 UNK        -0.4739 
      5 CA        -81.0524   27.0730  -73.3313 C.3       1 UNK         0.0864 
      6 C6        -80.2428   28.0694  -74.2004 C.3       11 UNK        -0.0881 
      7 S7        -80.6228   29.8218  -73.8537 S.3       11 UNK        -0.2682 
      8 C8        -79.6774   30.2142  -72.3433 C.3       11 UNK         0.0289 
      9 C9        -78.2333   29.7342  -72.3846 C.ar      11 UNK        -0.0687 
     10 C10       -77.7860   28.8105  -71.4377 C.ar      11 UNK        -0.0823 
     11 C11       -76.4783   28.3237  -71.4808 C.ar      11 UNK        -0.0830 
     12 C12       -75.5964   28.8068  -72.4512 C.ar      11 UNK        -0.1021 
     13 C13       -76.0246   29.7470  -73.3935 C.ar      11 UNK        -0.0753 
     14 C14       -77.3465   30.2035  -73.3590 C.ar      11 UNK        -0.0933 
     15 C15       -75.0655   30.2455  -74.4651 C.3       11 UNK         0.0166 
     16 S16       -74.6612   32.0095  -74.2593 S.3       11 UNK        -0.2615 
     17 C17       -73.6929   31.9947  -72.7102 C.3       11 UNK        -0.0865 
     18 CA        -72.2288   32.4863  -72.9068 C.3       10 UNK         0.0862 
     19 C         -71.4872   32.7119  -71.5520 C.2       10 UNK         0.5551 
     20 N         -70.1786   32.5026  -71.4724 N.am      10 UNK        -0.7319 
     21 O         -72.0967   33.1168  -70.5648 O.2       10 UNK        -0.5018 
     22 N         -71.4748   31.6973  -73.9015 N.am      10 UNK        -0.4509 
     23 C         -71.1573   30.4002  -73.8043 C.2       10 UNK         0.4899 
     24 O         -71.4596   29.6798  -72.8502 O.2       10 UNK        -0.4839 
     25 CA        -70.3080   29.8298  -74.9536 C.3       9 UNK         0.0222 
     26 CB        -68.8135   30.0832  -74.6937 C.3       9 UNK        -0.1966 
     27 N         -70.5271   28.3912  -75.1103 N.am      9 UNK        -0.4218 
     28 C         -71.6209   27.8512  -75.6606 C.2       9 UNK         0.5020 
     29 O         -72.5055   28.5120  -76.2104 O.2       9 UNK        -0.5274 
     30 CA        -71.7362   26.3210  -75.5588 C.3       8 UNK         0.0270 
     31 CB        -71.9525   25.8842  -74.0975 C.3       8 UNK        -0.1976 
     32 N         -72.8538   25.8335  -76.3676 N.am      8 UNK        -0.4313 
     33 C         -72.7600   25.4513  -77.6492 C.2       8 UNK         0.5041 
     34 O         -71.6935   25.3984  -78.2648 O.2       8 UNK        -0.5577 
     35 CA        -74.0538   25.0370  -78.3796 C.3       7 UNK         0.0284 
     36 CB        -74.1107   23.5099  -78.5498 C.3       7 UNK        -0.1958 
     37 N         -75.2710   25.4827  -77.7010 N.am      7 UNK        -0.4454 
     38 C         -75.7420   26.7379  -77.7254 C.2       7 UNK         0.5089 
     39 O         -75.2613   27.6326  -78.4210 O.2       7 UNK        -0.5125 
     40 CA        -76.9507   27.0578  -76.8212 C.3       6 UNK         0.0408 
     41 CB        -78.2282   27.1374  -77.6677 C.3       6 UNK        -0.1791 
     42 N         -77.1516   26.1096  -75.7161 N.am      6 UNK        -0.4762 
     43 C         -76.2614   25.8866  -74.7356 C.2       6 UNK         0.5007 
     44 O         -75.1828   26.4716  -74.6671 O.2       6 UNK        -0.5032 
     45 CA        -76.5706   24.7638  -73.7261 C.3       5 UNK         0.0783 
     46 C46       -77.0401   25.2915  -72.3458 C.3       11 UNK        -0.0857 
     47 S47       -75.6074   25.6753  -71.2720 S.3       11 UNK        -0.2512 
     48 C48       -76.0334   27.2643  -70.4837 C.3       11 UNK         0.0225 
     49 N         -77.4771   23.7527  -74.2828 N.am      5 UNK        -0.4615 
     50 C         -77.0570   22.7873  -75.1134 C.2       4 UNK         0.5053 
     51 O         -75.9102   22.7253  -75.5567 O.2       4 UNK        -0.5105 
     52 CA        -78.0668   21.6959  -75.4928 C.3       4 UNK         0.0263 
     53 CB        -78.6885   21.0388  -74.2467 C.3       4 UNK        -0.1981 
     54 N         -79.1300   22.1774  -76.3691 N.am      4 UNK        -0.4224 
     55 C         -78.9865   22.5878  -77.6385 C.2       3 UNK         0.4895 
     56 O         -77.9049   22.6752  -78.2188 O.2       3 UNK        -0.5091 
     57 CA        -80.2806   22.9287  -78.4040 C.3       3 UNK         0.0250 
     58 CB        -80.6787   21.7665  -79.3285 C.3       3 UNK        -0.1996 
     59 N         -81.3952   23.2268  -77.4983 N.am      3 UNK        -0.4254 
     60 C         -81.5381   24.4011  -76.8723 C.2       2 UNK         0.5004 
     61 O         -80.8695   25.3970  -77.1539 O.2       2 UNK        -0.5226 
     62 CA        -82.5845   24.4785  -75.7413 C.3       2 UNK         0.0269 
     63 CB        -82.7704   23.1467  -74.9772 C.3       2 UNK        -0.1926 
     64 N         -82.2849   25.5701  -74.8050 N.am      2 UNK        -0.4687 
     65 C         -81.1785   25.7195  -74.0587 C.2       1 UNK         0.5165 
     66 O         -80.2663   24.8874  -73.9756 O.2       1 UNK        -0.5079 
     67 H67       -79.1306   26.1288  -69.9378 H         1 UNK         0.0900 
     68 H68       -80.4286   26.8492  -68.9756 H         1 UNK         0.0900 
     69 H69       -80.4101   25.1113  -69.2868 H         1 UNK         0.0900 
     70 H70       -79.4684   27.1474  -71.9552 H         1 UNK         0.2959 
     71 H71       -82.0592   27.4699  -73.1811 H         1 UNK         0.1079 
     72 H72       -80.4884   27.9364  -75.2559 H         1 UNK         0.0837 
     73 H73       -79.1697   27.8827  -74.1332 H         1 UNK         0.0837 
     74 H74       -80.2046   29.7879  -71.4884 H         1 UNK         0.0685 
     75 H75       -79.6866   31.2949  -72.1958 H         1 UNK         0.0685 
     76 H76       -78.4608   28.4627  -70.6685 H         1 UNK         0.1434 
     77 H77       -74.5834   28.4286  -72.4891 H         1 UNK         0.1329 
     78 H78       -77.6861   30.9210  -74.0935 H         1 UNK         0.1335 
     79 H79       -74.1433   29.6634  -74.4595 H         1 UNK         0.0680 
     80 H80       -75.5155   30.0950  -75.4472 H         1 UNK         0.0680 
     81 H81       -73.7033   30.9998  -72.2638 H         1 UNK         0.1032 
     82 H82       -74.2210   32.6380  -72.0043 H         1 UNK         0.1032 
     83 H83       -72.2919   33.4863  -73.3375 H         1 UNK         0.0461 
     84 H84       -69.7047   32.6620  -70.5973 H         1 UNK         0.3453 
     85 H85       -69.6639   32.1814  -72.2758 H         1 UNK         0.3453 
     86 H86       -71.1659   32.2116  -74.7140 H         1 UNK         0.2984 
     87 H87       -70.5898   30.3297  -75.8831 H         1 UNK         0.0554 
     88 H88       -68.6032   31.1509  -74.6184 H         1 UNK         0.0847 
     89 H89       -68.1975   29.6925  -75.5040 H         1 UNK         0.0847 
     90 H90       -68.4795   29.6194  -73.7644 H         1 UNK         0.0847 
     91 H91       -69.8689   27.7830  -74.6453 H         1 UNK         0.3141 
     92 H92       -70.8039   25.8793  -75.9172 H         1 UNK         0.0743 
     93 H93       -71.0744   26.0981  -73.4875 H         1 UNK         0.0784 
     94 H94       -72.7944   26.4037  -73.6381 H         1 UNK         0.0784 
     95 H95       -72.1408   24.8129  -74.0249 H         1 UNK         0.0784 
     96 H96       -73.7733   25.9554  -75.9530 H         1 UNK         0.3213 
     97 H97       -74.0266   25.4889  -79.3736 H         1 UNK         0.0855 
     98 H98       -74.1062   22.9967  -77.5876 H         1 UNK         0.0814 
     99 H99       -73.2511   23.1481  -79.1155 H         1 UNK         0.0814 
    100 H100      -75.0071   23.2019  -79.0889 H         1 UNK         0.0814 
    101 H101      -75.7380   24.8037  -77.1147 H         1 UNK         0.3105 
    102 H102      -76.7731   28.0402  -76.3787 H         1 UNK         0.0547 
    103 H103      -79.0831   27.4540  -77.0726 H         1 UNK         0.0837 
    104 H104      -78.4694   26.1755  -78.1217 H         1 UNK         0.0837 
    105 H105      -78.1176   27.8601  -78.4772 H         1 UNK         0.0837 
    106 H106      -78.0067   25.5703  -75.7221 H         1 UNK         0.3020 
    107 H107      -75.6154   24.2569  -73.5632 H         1 UNK         0.1245 
    108 H108      -77.6247   24.5302  -71.8268 H         1 UNK         0.0781 
    109 H109      -77.7035   26.1477  -72.4581 H         1 UNK         0.0781 
    110 H110      -75.1611   27.6314  -69.9413 H         1 UNK         0.0836 
    111 H111      -76.8032   27.0861  -69.7317 H         1 UNK         0.0836 
    112 H112      -78.4537   23.8085  -74.0120 H         1 UNK         0.3022 
    113 H113      -77.5176   20.9231  -76.0354 H         1 UNK         0.0747 
    114 H114      -79.2837   20.1663  -74.5172 H         1 UNK         0.0793 
    115 H115      -77.9146   20.6975  -73.5576 H         1 UNK         0.0793 
    116 H116      -79.3354   21.7248  -73.6980 H         1 UNK         0.0793 
    117 H117      -80.0616   22.1663  -75.9846 H         1 UNK         0.3047 
    118 H118      -80.0763   23.8035  -79.0258 H         1 UNK         0.0822 
    119 H119      -81.5637   22.0123  -79.9159 H         1 UNK         0.0807 
    120 H120      -80.8891   20.8548  -78.7678 H         1 UNK         0.0807 
    121 H121      -79.8779   21.5376  -80.0332 H         1 UNK         0.0807 
    122 H122      -82.0119   22.4629  -77.2607 H         1 UNK         0.2946 
    123 H123      -83.5324   24.7299  -76.2202 H         1 UNK         0.1144 
    124 H124      -83.1840   22.3684  -75.6191 H         1 UNK         0.0793 
    125 H125      -83.4660   23.2677  -74.1466 H         1 UNK         0.0793 
    126 H126      -81.8318   22.7747  -74.5654 H         1 UNK         0.0793 
    127 H127      -82.9451   26.3350  -74.8239 H         1 UNK         0.2896 
@<TRIPOS>BOND
     1    1    2 1    
     2    1   67 1    
     3    1   68 1    
     4    1   69 1    
     5    2    3 2    
     6    2    4 am   BACKBONE|DICT|INTERRES
     7    4    5 1    
     8    4   70 1    
     9    5    6 1    
    10    5   65 1    
    11    5   71 1    
    12    6    7 1    
    13    6   72 1    
    14    6   73 1    
    15    7    8 1    
    16    8    9 1    
    17    8   74 1    
    18    8   75 1    
    19    9   10 ar   
    20    9   14 ar   
    21   10   11 ar   
    22   10   76 1    
    23   11   12 ar   
    24   11   48 1    
    25   12   13 ar   
    26   12   77 1    
    27   13   14 ar   
    28   13   15 1    
    29   14   78 1    
    30   15   16 1    
    31   15   79 1    
    32   15   80 1    
    33   16   17 1    
    34   17   18 1    
    35   17   81 1    
    36   17   82 1    
    37   18   19 1    
    38   18   22 1    
    39   18   83 1    
    40   19   20 am   BACKBONE|DICT|INTERRES
    41   19   21 2    
    42   20   84 1    
    43   20   85 1    
    44   22   23 am   BACKBONE|DICT|INTERRES
    45   22   86 1    
    46   23   24 2    
    47   23   25 1    
    48   25   26 1    
    49   25   27 1    
    50   25   87 1    
    51   26   88 1    
    52   26   89 1    
    53   26   90 1    
    54   27   28 am   BACKBONE|DICT|INTERRES
    55   27   91 1    
    56   28   29 2    
    57   28   30 1    
    58   30   31 1    
    59   30   32 1    
    60   30   92 1    
    61   31   93 1    
    62   31   94 1    
    63   31   95 1    
    64   32   33 am   BACKBONE|DICT|INTERRES
    65   32   96 1    
    66   33   34 2    
    67   33   35 1    
    68   35   36 1    
    69   35   37 1    
    70   35   97 1    
    71   36   98 1    
    72   36   99 1    
    73   36  100 1    
    74   37   38 am   BACKBONE|DICT|INTERRES
    75   37  101 1    
    76   38   39 2    
    77   38   40 1    
    78   40   41 1    
    79   40   42 1    
    80   40  102 1    
    81   41  103 1    
    82   41  104 1    
    83   41  105 1    
    84   42   43 am   BACKBONE|DICT|INTERRES
    85   42  106 1    
    86   43   44 2    
    87   43   45 1    
    88   45   46 1    
    89   45   49 1    
    90   45  107 1    
    91   46   47 1    
    92   46  108 1    
    93   46  109 1    
    94   47   48 1    
    95   48  110 1    
    96   48  111 1    
    97   49   50 am   BACKBONE|DICT|INTERRES
    98   49  112 1    
    99   50   51 2    
   100   50   52 1    
   101   52   53 1    
   102   52   54 1    
   103   52  113 1    
   104   53  114 1    
   105   53  115 1    
   106   53  116 1    
   107   54   55 am   BACKBONE|DICT|INTERRES
   108   54  117 1    
   109   55   56 2    
   110   55   57 1    
   111   57   58 1    
   112   57   59 1    
   113   57  118 1    
   114   58  119 1    
   115   58  120 1    
   116   58  121 1    
   117   59   60 am   BACKBONE|DICT|INTERRES
   118   59  122 1    
   119   60   61 2    
   120   60   62 1    
   121   62   63 1    
   122   62   64 1    
   123   62  123 1    
   124   63  124 1    
   125   63  125 1    
   126   63  126 1    
   127   64   65 am   BACKBONE|DICT|INTERRES
   128   64  127 1    
   129   65   66 2    
@<TRIPOS>SUBSTRUCTURE
     1 UNK         1 GROUP             0       ****    0 ROOT    
