@<TRIPOS>MOLECULE
3R135
127   129    1
SMALL
USER_CHARGES


@<TRIPOS>ATOM
      1 CA        -85.4492   27.2238  -73.6140 C.3       0 UNK        -0.1998 
      2 C         -84.5854   28.1412  -72.7518 C.2       0 UNK         0.4909 
      3 O         -84.9127   28.3514  -71.5855 O.2       0 UNK        -0.5240 
      4 N         -83.4885   28.7188  -73.2640 N.am      1 UNK        -0.4739 
      5 CA        -82.9083   28.5349  -74.6027 C.3       1 UNK         0.0864 
      6 C6        -81.8419   29.6140  -74.9306 C.3       11 UNK        -0.0881 
      7 S7        -80.6391   29.9100  -73.5873 S.3       11 UNK        -0.2682 
      8 C8        -79.1421   29.1385  -74.2633 C.3       11 UNK         0.0289 
      9 C9        -78.0748   29.0301  -73.1892 C.ar      11 UNK        -0.0687 
     10 C10       -77.9225   27.8361  -72.4811 C.ar      11 UNK        -0.0823 
     11 C11       -76.9869   27.7362  -71.4482 C.ar      11 UNK        -0.0830 
     12 C12       -76.1993   28.8462  -71.1298 C.ar      11 UNK        -0.1021 
     13 C13       -76.3402   30.0478  -71.8335 C.ar      11 UNK        -0.0753 
     14 C14       -77.2718   30.1298  -72.8728 C.ar      11 UNK        -0.0933 
     15 C15       -75.5454   31.2763  -71.4130 C.3       11 UNK         0.0166 
     16 S16       -73.7499   31.0097  -71.5145 S.3       11 UNK        -0.2615 
     17 C17       -73.3615   31.5240  -73.2257 C.3       11 UNK        -0.0865 
     18 CA        -73.4194   30.3980  -74.3048 C.3       10 UNK         0.0862 
     19 C         -72.9038   30.9173  -75.6816 C.2       10 UNK         0.5551 
     20 N         -72.0686   30.1855  -76.4087 N.am      10 UNK        -0.7319 
     21 O         -73.2796   32.0077  -76.1058 O.2       10 UNK        -0.5018 
     22 N         -72.8446   29.1149  -73.8660 N.am      10 UNK        -0.4509 
     23 C         -71.6051   28.9112  -73.4019 C.2       10 UNK         0.4899 
     24 O         -70.7250   29.7709  -73.3585 O.2       10 UNK        -0.4839 
     25 CA        -71.2993   27.4964  -72.9034 C.3       9 UNK         0.0222 
     26 CB        -72.1602   27.1417  -71.6774 C.3       9 UNK        -0.1966 
     27 N         -71.5418   26.5356  -73.9780 N.am      9 UNK        -0.4218 
     28 C         -70.5891   25.8043  -74.5697 C.2       9 UNK         0.5020 
     29 O         -69.4044   25.8077  -74.2305 O.2       9 UNK        -0.5274 
     30 CA        -71.0183   24.9065  -75.7409 C.3       8 UNK         0.0270 
     31 CB        -71.4378   23.5188  -75.2283 C.3       8 UNK        -0.1976 
     32 N         -72.0917   25.4649  -76.5668 N.am      8 UNK        -0.4313 
     33 C         -71.9828   26.5562  -77.3383 C.2       8 UNK         0.5041 
     34 O         -70.9829   27.2735  -77.3709 O.2       8 UNK        -0.5577 
     35 CA        -73.1834   26.9052  -78.2290 C.3       7 UNK         0.0284 
     36 CB        -73.2518   25.9598  -79.4402 C.3       7 UNK        -0.1958 
     37 N         -74.4355   26.8231  -77.4785 N.am      7 UNK        -0.4454 
     38 C         -75.2052   27.8709  -77.1554 C.2       7 UNK         0.5089 
     39 O         -74.9902   29.0227  -77.5302 O.2       7 UNK        -0.5125 
     40 CA        -76.4471   27.6036  -76.2821 C.3       6 UNK         0.0408 
     41 CB        -77.6877   27.5222  -77.1886 C.3       6 UNK        -0.1791 
     42 N         -76.3869   26.3936  -75.4552 N.am      6 UNK        -0.4762 
     43 C         -75.4225   26.0702  -74.5782 C.2       6 UNK         0.5007 
     44 O         -74.4509   26.7852  -74.3245 O.2       6 UNK        -0.5032 
     45 CA        -75.4947   24.6495  -73.9775 C.3       5 UNK         0.0783 
     46 C46       -76.3676   24.5914  -72.7024 C.3       11 UNK        -0.0857 
     47 S47       -75.5620   25.3511  -71.2538 S.3       11 UNK        -0.2512 
     48 C48       -76.8683   26.4558  -70.6332 C.3       11 UNK         0.0225 
     49 N         -75.9434   23.6508  -74.9550 N.am      5 UNK        -0.4615 
     50 C         -75.4036   23.3988  -76.1539 C.2       4 UNK         0.5053 
     51 O         -74.4124   23.9815  -76.5911 O.2       4 UNK        -0.5105 
     52 CA        -76.1253   22.3789  -77.0492 C.3       4 UNK         0.0263 
     53 CB        -75.8571   20.9324  -76.5900 C.3       4 UNK        -0.1981 
     54 N         -77.5603   22.6624  -77.2041 N.am      4 UNK        -0.4224 
     55 C         -78.5278   22.6013  -76.2781 C.2       3 UNK         0.4895 
     56 O         -78.3639   22.1853  -75.1278 O.2       3 UNK        -0.5091 
     57 CA        -79.9094   23.1055  -76.7230 C.3       3 UNK         0.0250 
     58 CB        -80.7001   21.9736  -77.3995 C.3       3 UNK        -0.1996 
     59 N         -80.7002   23.6414  -75.6133 N.am      3 UNK        -0.4254 
     60 C         -80.3808   24.7079  -74.8664 C.2       2 UNK         0.5004 
     61 O         -79.3534   25.3778  -75.0057 O.2       2 UNK        -0.5226 
     62 CA        -81.3914   25.0759  -73.7642 C.3       2 UNK         0.0269 
     63 CB        -80.8306   24.7344  -72.3739 C.3       2 UNK        -0.1926 
     64 N         -81.8097   26.4822  -73.7942 N.am      2 UNK        -0.4687 
     65 C         -82.3834   27.1021  -74.8380 C.2       1 UNK         0.5165 
     66 O         -82.5774   26.5705  -75.9316 O.2       1 UNK        -0.5079 
     67 H67       -86.4241   27.0772  -73.1494 H         1 UNK         0.0900 
     68 H68       -84.9833   26.2447  -73.7202 H         1 UNK         0.0900 
     69 H69       -85.6232   27.6422  -74.6042 H         1 UNK         0.0900 
     70 H70       -82.9464   29.3257  -72.6643 H         1 UNK         0.2959 
     71 H71       -83.7143   28.6787  -75.3249 H         1 UNK         0.1079 
     72 H72       -81.3208   29.3867  -75.8632 H         1 UNK         0.0837 
     73 H73       -82.3481   30.5634  -75.1128 H         1 UNK         0.0837 
     74 H74       -79.3926   28.1468  -74.6401 H         1 UNK         0.0685 
     75 H75       -78.7743   29.7199  -75.1100 H         1 UNK         0.0685 
     76 H76       -78.5517   26.9941  -72.7278 H         1 UNK         0.1434 
     77 H77       -75.4875   28.7834  -70.3179 H         1 UNK         0.1329 
     78 H78       -77.4045   31.0595  -73.4089 H         1 UNK         0.1335 
     79 H79       -75.7990   31.5096  -70.3780 H         1 UNK         0.0680 
     80 H80       -75.8273   32.1533  -71.9975 H         1 UNK         0.0680 
     81 H81       -74.0205   32.3471  -73.5070 H         1 UNK         0.1032 
     82 H82       -72.3590   31.9550  -73.2004 H         1 UNK         0.1032 
     83 H83       -74.4737   30.1726  -74.4701 H         1 UNK         0.0461 
     84 H84       -71.7578   30.5357  -77.3001 H         1 UNK         0.3453 
     85 H85       -71.7495   29.2866  -76.0830 H         1 UNK         0.3453 
     86 H86       -73.4886   28.3284  -73.8930 H         1 UNK         0.2984 
     87 H87       -70.2534   27.4755  -72.5905 H         1 UNK         0.0554 
     88 H88       -71.9196   26.1485  -71.2985 H         1 UNK         0.0847 
     89 H89       -73.2267   27.1614  -71.9031 H         1 UNK         0.0847 
     90 H90       -71.9904   27.8503  -70.8658 H         1 UNK         0.0847 
     91 H91       -72.4925   26.4874  -74.3313 H         1 UNK         0.3141 
     92 H92       -70.1467   24.7774  -76.3862 H         1 UNK         0.0743 
     93 H93       -72.3173   23.5737  -74.5865 H         1 UNK         0.0784 
     94 H94       -71.6676   22.8436  -76.0529 H         1 UNK         0.0784 
     95 H95       -70.6377   23.0588  -74.6467 H         1 UNK         0.0784 
     96 H96       -72.9498   24.9152  -76.6117 H         1 UNK         0.3213 
     97 H97       -73.0272   27.9195  -78.6033 H         1 UNK         0.0855 
     98 H98       -73.4170   24.9238  -79.1411 H         1 UNK         0.0814 
     99 H99       -72.3236   25.9913  -80.0125 H         1 UNK         0.0814 
    100 H100      -74.0583   26.2442  -80.1161 H         1 UNK         0.0814 
    101 H101      -74.6851   25.9115  -77.1122 H         1 UNK         0.3105 
    102 H102      -76.5565   28.4525  -75.6058 H         1 UNK         0.0547 
    103 H103      -78.6026   27.3692  -76.6200 H         1 UNK         0.0837 
    104 H104      -77.8147   28.4427  -77.7600 H         1 UNK         0.0837 
    105 H105      -77.6070   26.7035  -77.9048 H         1 UNK         0.0837 
    106 H106      -77.1693   25.7563  -75.5468 H         1 UNK         0.3020 
    107 H107      -74.4750   24.3709  -73.7046 H         1 UNK         0.1245 
    108 H108      -76.5593   23.5511  -72.4339 H         1 UNK         0.0781 
    109 H109      -77.3502   25.0284  -72.8825 H         1 UNK         0.0781 
    110 H110      -76.6432   26.7072  -69.5956 H         1 UNK         0.0836 
    111 H111      -77.8207   25.9239  -70.6095 H         1 UNK         0.0836 
    112 H112      -76.7892   23.1354  -74.7230 H         1 UNK         0.3022 
    113 H113      -75.6963   22.4840  -78.0472 H         1 UNK         0.0747 
    114 H114      -76.3333   20.2120  -77.2550 H         1 UNK         0.0793 
    115 H115      -74.7875   20.7186  -76.5934 H         1 UNK         0.0793 
    116 H116      -76.2184   20.7438  -75.5789 H         1 UNK         0.0793 
    117 H117      -77.8167   23.0194  -78.1147 H         1 UNK         0.3047 
    118 H118      -79.7677   23.9157  -77.4416 H         1 UNK         0.0822 
    119 H119      -81.6634   22.3266  -77.7687 H         1 UNK         0.0807 
    120 H120      -80.1570   21.5704  -78.2554 H         1 UNK         0.0807 
    121 H121      -80.8855   21.1459  -76.7134 H         1 UNK         0.0807 
    122 H122      -81.5499   23.1410  -75.3983 H         1 UNK         0.2946 
    123 H123      -82.2943   24.4798  -73.9135 H         1 UNK         0.1144 
    124 H124      -80.5331   23.6861  -72.3208 H         1 UNK         0.0793 
    125 H125      -81.5741   24.8983  -71.5937 H         1 UNK         0.0793 
    126 H126      -79.9527   25.3308  -72.1307 H         1 UNK         0.0793 
    127 H127      -81.6902   27.0106  -72.9421 H         1 UNK         0.2896 
@<TRIPOS>BOND
     1    1    2 1    
     2    1   67 1    
     3    1   68 1    
     4    1   69 1    
     5    2    3 2    
     6    2    4 am   BACKBONE|DICT|INTERRES
     7    4    5 1    
     8    4   70 1    
     9    5    6 1    
    10    5   65 1    
    11    5   71 1    
    12    6    7 1    
    13    6   72 1    
    14    6   73 1    
    15    7    8 1    
    16    8    9 1    
    17    8   74 1    
    18    8   75 1    
    19    9   10 ar   
    20    9   14 ar   
    21   10   11 ar   
    22   10   76 1    
    23   11   12 ar   
    24   11   48 1    
    25   12   13 ar   
    26   12   77 1    
    27   13   14 ar   
    28   13   15 1    
    29   14   78 1    
    30   15   16 1    
    31   15   79 1    
    32   15   80 1    
    33   16   17 1    
    34   17   18 1    
    35   17   81 1    
    36   17   82 1    
    37   18   19 1    
    38   18   22 1    
    39   18   83 1    
    40   19   20 am   BACKBONE|DICT|INTERRES
    41   19   21 2    
    42   20   84 1    
    43   20   85 1    
    44   22   23 am   BACKBONE|DICT|INTERRES
    45   22   86 1    
    46   23   24 2    
    47   23   25 1    
    48   25   26 1    
    49   25   27 1    
    50   25   87 1    
    51   26   88 1    
    52   26   89 1    
    53   26   90 1    
    54   27   28 am   BACKBONE|DICT|INTERRES
    55   27   91 1    
    56   28   29 2    
    57   28   30 1    
    58   30   31 1    
    59   30   32 1    
    60   30   92 1    
    61   31   93 1    
    62   31   94 1    
    63   31   95 1    
    64   32   33 am   BACKBONE|DICT|INTERRES
    65   32   96 1    
    66   33   34 2    
    67   33   35 1    
    68   35   36 1    
    69   35   37 1    
    70   35   97 1    
    71   36   98 1    
    72   36   99 1    
    73   36  100 1    
    74   37   38 am   BACKBONE|DICT|INTERRES
    75   37  101 1    
    76   38   39 2    
    77   38   40 1    
    78   40   41 1    
    79   40   42 1    
    80   40  102 1    
    81   41  103 1    
    82   41  104 1    
    83   41  105 1    
    84   42   43 am   BACKBONE|DICT|INTERRES
    85   42  106 1    
    86   43   44 2    
    87   43   45 1    
    88   45   46 1    
    89   45   49 1    
    90   45  107 1    
    91   46   47 1    
    92   46  108 1    
    93   46  109 1    
    94   47   48 1    
    95   48  110 1    
    96   48  111 1    
    97   49   50 am   BACKBONE|DICT|INTERRES
    98   49  112 1    
    99   50   51 2    
   100   50   52 1    
   101   52   53 1    
   102   52   54 1    
   103   52  113 1    
   104   53  114 1    
   105   53  115 1    
   106   53  116 1    
   107   54   55 am   BACKBONE|DICT|INTERRES
   108   54  117 1    
   109   55   56 2    
   110   55   57 1    
   111   57   58 1    
   112   57   59 1    
   113   57  118 1    
   114   58  119 1    
   115   58  120 1    
   116   58  121 1    
   117   59   60 am   BACKBONE|DICT|INTERRES
   118   59  122 1    
   119   60   61 2    
   120   60   62 1    
   121   62   63 1    
   122   62   64 1    
   123   62  123 1    
   124   63  124 1    
   125   63  125 1    
   126   63  126 1    
   127   64   65 am   BACKBONE|DICT|INTERRES
   128   64  127 1    
   129   65   66 2    
@<TRIPOS>SUBSTRUCTURE
     1 UNK         1 GROUP             0       ****    0 ROOT    
