@<TRIPOS>MOLECULE
3R135
127   129    1
SMALL
USER_CHARGES


@<TRIPOS>ATOM
      1 CA        -84.9822   25.3572  -69.9723 C.3       0 UNK        -0.1998 
      2 C         -84.2659   25.4086  -71.3133 C.2       0 UNK         0.4909 
      3 O         -84.8502   25.0456  -72.3346 O.2       0 UNK        -0.5240 
      4 N         -83.0022   25.8537  -71.3187 N.am      1 UNK        -0.4739 
      5 CA        -82.1655   25.9891  -72.5219 C.3       1 UNK         0.0864 
      6 C6        -80.9853   26.9715  -72.3040 C.3       11 UNK        -0.0881 
      7 S7        -81.5591   28.6178  -71.7674 S.3       11 UNK        -0.2682 
      8 C8        -79.9880   29.4072  -71.2732 C.3       11 UNK         0.0289 
      9 C9        -79.1463   30.0010  -72.4062 C.ar      11 UNK        -0.0687 
     10 C10       -79.6508   30.2312  -73.6943 C.ar      11 UNK        -0.0823 
     11 C11       -78.8561   30.8281  -74.6780 C.ar      11 UNK        -0.0830 
     12 C12       -77.5515   31.2183  -74.3655 C.ar      11 UNK        -0.1021 
     13 C13       -77.0234   30.9703  -73.0962 C.ar      11 UNK        -0.0753 
     14 C14       -77.8264   30.3679  -72.1235 C.ar      11 UNK        -0.0933 
     15 C15       -75.5864   31.3583  -72.7769 C.3       11 UNK         0.0166 
     16 S16       -74.3898   30.3647  -73.7237 S.3       11 UNK        -0.2615 
     17 C17       -74.6496   28.6882  -73.0427 C.3       11 UNK        -0.0865 
     18 CA        -73.3153   28.0122  -72.6414 C.3       10 UNK         0.0862 
     19 C         -73.5692   26.6813  -71.8809 C.2       10 UNK         0.5551 
     20 N         -73.8929   26.7605  -70.5969 N.am      10 UNK        -0.7319 
     21 O         -73.5080   25.5892  -72.4394 O.2       10 UNK        -0.5018 
     22 N         -72.4269   27.8464  -73.8024 N.am      10 UNK        -0.4509 
     23 C         -71.1064   27.6381  -73.7219 C.2       10 UNK         0.4899 
     24 O         -70.4864   27.5918  -72.6576 O.2       10 UNK        -0.4839 
     25 CA        -70.3501   27.4946  -75.0583 C.3       9 UNK         0.0222 
     26 CB        -68.9015   26.9876  -74.8884 C.3       9 UNK        -0.1966 
     27 N         -71.0791   26.6956  -76.0499 N.am      9 UNK        -0.4218 
     28 C         -71.4286   25.4012  -75.9613 C.2       9 UNK         0.5020 
     29 O         -71.1002   24.6675  -75.0282 O.2       9 UNK        -0.5274 
     30 CA        -72.2872   24.8130  -77.0987 C.3       8 UNK         0.0270 
     31 CB        -73.5500   24.1393  -76.5385 C.3       8 UNK        -0.1976 
     32 N         -72.6985   25.8320  -78.0669 N.am      8 UNK        -0.4313 
     33 C         -72.1471   26.0194  -79.2742 C.2       8 UNK         0.5041 
     34 O         -71.2697   25.2959  -79.7468 O.2       8 UNK        -0.5577 
     35 CA        -72.6342   27.2340  -80.0911 C.3       7 UNK         0.0284 
     36 CB        -73.7222   26.8054  -81.0890 C.3       7 UNK        -0.1958 
     37 N         -73.1428   28.3377  -79.2693 N.am      7 UNK        -0.4454 
     38 C         -72.4291   29.0138  -78.3581 C.2       7 UNK         0.5089 
     39 O         -71.2300   28.8272  -78.1562 O.2       7 UNK        -0.5125 
     40 CA        -73.1886   30.0102  -77.4652 C.3       6 UNK         0.0408 
     41 CB        -73.0258   31.4411  -77.9995 C.3       6 UNK        -0.1791 
     42 N         -74.6170   29.7196  -77.2842 N.am      6 UNK        -0.4762 
     43 C         -75.1384   28.5877  -76.7843 C.2       6 UNK         0.5007 
     44 O         -74.4508   27.6007  -76.5057 O.2       6 UNK        -0.5032 
     45 CA        -76.6630   28.5659  -76.5375 C.3       5 UNK         0.0783 
     46 C46       -77.4605   29.5205  -77.4719 C.3       11 UNK        -0.0857 
     47 S47       -79.2502   29.5495  -77.1057 S.3       11 UNK        -0.2512 
     48 C48       -79.4108   31.0471  -76.0781 C.3       11 UNK         0.0225 
     49 N         -77.1644   27.1905  -76.6019 N.am      5 UNK        -0.4615 
     50 C         -77.5659   26.4750  -75.5457 C.2       4 UNK         0.5053 
     51 O         -77.5210   26.8842  -74.3831 O.2       4 UNK        -0.5105 
     52 CA        -78.1906   25.0979  -75.8479 C.3       4 UNK         0.0263 
     53 CB        -77.5328   24.3541  -77.0324 C.3       4 UNK        -0.1981 
     54 N         -78.2622   24.2605  -74.6459 N.am      4 UNK        -0.4224 
     55 C         -77.2427   23.7090  -73.9668 C.2       3 UNK         0.4895 
     56 O         -76.0801   23.6882  -74.3680 O.2       3 UNK        -0.5091 
     57 CA        -77.5527   23.0837  -72.5907 C.3       3 UNK         0.0250 
     58 CB        -76.9001   23.9140  -71.4711 C.3       3 UNK        -0.1996 
     59 N         -78.9845   22.9623  -72.3073 N.am      3 UNK        -0.4254 
     60 C         -79.8036   22.0494  -72.8464 C.2       2 UNK         0.5004 
     61 O         -79.4247   21.1337  -73.5769 O.2       2 UNK        -0.5226 
     62 CA        -81.3054   22.2040  -72.5435 C.3       2 UNK         0.0269 
     63 CB        -81.7243   21.2659  -71.4000 C.3       2 UNK        -0.1926 
     64 N         -81.7143   23.5766  -72.2140 N.am      2 UNK        -0.4687 
     65 C         -81.6494   24.6305  -73.0443 C.2       1 UNK         0.5165 
     66 O         -81.1799   24.5628  -74.1804 O.2       1 UNK        -0.5079 
     67 H67       -85.2868   24.3352  -69.7483 H         1 UNK         0.0900 
     68 H68       -85.8753   25.9808  -70.0005 H         1 UNK         0.0900 
     69 H69       -84.3491   25.7090  -69.1580 H         1 UNK         0.0900 
     70 H70       -82.5797   26.1662  -70.4557 H         1 UNK         0.2959 
     71 H71       -82.7920   26.3994  -73.3176 H         1 UNK         0.1079 
     72 H72       -80.2919   26.5780  -71.5583 H         1 UNK         0.0837 
     73 H73       -80.4088   27.0977  -73.2237 H         1 UNK         0.0837 
     74 H74       -79.3926   28.6870  -70.7098 H         1 UNK         0.0685 
     75 H75       -80.2267   30.2137  -70.5787 H         1 UNK         0.0685 
     76 H76       -80.6643   29.9535  -73.9451 H         1 UNK         0.1434 
     77 H77       -76.9321   31.6879  -75.1173 H         1 UNK         0.1329 
     78 H78       -77.4250   30.1918  -71.1347 H         1 UNK         0.1335 
     79 H79       -75.3766   31.2564  -71.7109 H         1 UNK         0.0680 
     80 H80       -75.4390   32.4116  -73.0194 H         1 UNK         0.0680 
     81 H81       -75.1778   28.0806  -73.7785 H         1 UNK         0.1032 
     82 H82       -75.3158   28.7541  -72.1808 H         1 UNK         0.1032 
     83 H83       -72.8078   28.6821  -71.9438 H         1 UNK         0.0461 
     84 H84       -73.9443   27.6488  -70.1235 H         1 UNK         0.3453 
     85 H85       -74.0700   25.9105  -70.0855 H         1 UNK         0.3453 
     86 H86       -72.8782   27.8242  -74.7066 H         1 UNK         0.2984 
     87 H87       -70.2917   28.5013  -75.4745 H         1 UNK         0.0554 
     88 H88       -68.3210   27.6673  -74.2635 H         1 UNK         0.0847 
     89 H89       -68.3905   26.9171  -75.8485 H         1 UNK         0.0847 
     90 H90       -68.8668   26.0056  -74.4160 H         1 UNK         0.0847 
     91 H91       -71.3464   27.2025  -76.8863 H         1 UNK         0.3141 
     92 H92       -71.6846   24.0458  -77.5889 H         1 UNK         0.0743 
     93 H93       -73.2983   23.3475  -75.8318 H         1 UNK         0.0784 
     94 H94       -74.1836   24.8532  -76.0099 H         1 UNK         0.0784 
     95 H95       -74.1409   23.6843  -77.3330 H         1 UNK         0.0784 
     96 H96       -73.4042   26.4861  -77.7368 H         1 UNK         0.3213 
     97 H97       -71.7778   27.6102  -80.6551 H         1 UNK         0.0855 
     98 H98       -74.6156   26.4396  -80.5812 H         1 UNK         0.0814 
     99 H99       -73.3637   26.0026  -81.7350 H         1 UNK         0.0814 
    100 H100      -74.0162   27.6315  -81.7368 H         1 UNK         0.0814 
    101 H101      -74.1226   28.5623  -79.3611 H         1 UNK         0.3105 
    102 H102      -72.7269   29.9653  -76.4765 H         1 UNK         0.0547 
    103 H103      -71.9717   31.6954  -78.1208 H         1 UNK         0.0837 
    104 H104      -73.5050   31.5677  -78.9710 H         1 UNK         0.0837 
    105 H105      -73.4539   32.1724  -77.3135 H         1 UNK         0.0837 
    106 H106      -75.2447   30.4827  -77.4907 H         1 UNK         0.3020 
    107 H107      -76.7787   28.9373  -75.5189 H         1 UNK         0.1245 
    108 H108      -77.3386   29.2196  -78.5141 H         1 UNK         0.0781 
    109 H109      -77.0934   30.5454  -77.4071 H         1 UNK         0.0781 
    110 H110      -80.4665   31.3153  -76.0136 H         1 UNK         0.0836 
    111 H111      -78.9173   31.8895  -76.5652 H         1 UNK         0.0836 
    112 H112      -77.2091   26.7742  -77.5195 H         1 UNK         0.3022 
    113 H113      -79.2277   25.2957  -76.1225 H         1 UNK         0.0747 
    114 H114      -77.9295   23.3438  -77.1327 H         1 UNK         0.0793 
    115 H115      -76.4531   24.2764  -76.9126 H         1 UNK         0.0793 
    116 H116      -77.7218   24.8633  -77.9776 H         1 UNK         0.0793 
    117 H117      -79.1857   24.2219  -74.2290 H         1 UNK         0.3047 
    118 H118      -77.1112   22.0848  -72.5805 H         1 UNK         0.0822 
    119 H119      -77.0611   23.4622  -70.4922 H         1 UNK         0.0807 
    120 H120      -77.2910   24.9322  -71.4441 H         1 UNK         0.0807 
    121 H121      -75.8214   23.9874  -71.6189 H         1 UNK         0.0807 
    122 H122      -79.3899   23.6644  -71.7061 H         1 UNK         0.2946 
    123 H123      -81.8437   21.9072  -73.4467 H         1 UNK         0.1144 
    124 H124      -81.4592   20.2320  -71.6260 H         1 UNK         0.0793 
    125 H125      -82.8022   21.2931  -71.2384 H         1 UNK         0.0793 
    126 H126      -81.2358   21.5297  -70.4611 H         1 UNK         0.0793 
    127 H127      -82.1170   23.7249  -71.2997 H         1 UNK         0.2896 
@<TRIPOS>BOND
     1    1    2 1    
     2    1   67 1    
     3    1   68 1    
     4    1   69 1    
     5    2    3 2    
     6    2    4 am   BACKBONE|DICT|INTERRES
     7    4    5 1    
     8    4   70 1    
     9    5    6 1    
    10    5   65 1    
    11    5   71 1    
    12    6    7 1    
    13    6   72 1    
    14    6   73 1    
    15    7    8 1    
    16    8    9 1    
    17    8   74 1    
    18    8   75 1    
    19    9   10 ar   
    20    9   14 ar   
    21   10   11 ar   
    22   10   76 1    
    23   11   12 ar   
    24   11   48 1    
    25   12   13 ar   
    26   12   77 1    
    27   13   14 ar   
    28   13   15 1    
    29   14   78 1    
    30   15   16 1    
    31   15   79 1    
    32   15   80 1    
    33   16   17 1    
    34   17   18 1    
    35   17   81 1    
    36   17   82 1    
    37   18   19 1    
    38   18   22 1    
    39   18   83 1    
    40   19   20 am   BACKBONE|DICT|INTERRES
    41   19   21 2    
    42   20   84 1    
    43   20   85 1    
    44   22   23 am   BACKBONE|DICT|INTERRES
    45   22   86 1    
    46   23   24 2    
    47   23   25 1    
    48   25   26 1    
    49   25   27 1    
    50   25   87 1    
    51   26   88 1    
    52   26   89 1    
    53   26   90 1    
    54   27   28 am   BACKBONE|DICT|INTERRES
    55   27   91 1    
    56   28   29 2    
    57   28   30 1    
    58   30   31 1    
    59   30   32 1    
    60   30   92 1    
    61   31   93 1    
    62   31   94 1    
    63   31   95 1    
    64   32   33 am   BACKBONE|DICT|INTERRES
    65   32   96 1    
    66   33   34 2    
    67   33   35 1    
    68   35   36 1    
    69   35   37 1    
    70   35   97 1    
    71   36   98 1    
    72   36   99 1    
    73   36  100 1    
    74   37   38 am   BACKBONE|DICT|INTERRES
    75   37  101 1    
    76   38   39 2    
    77   38   40 1    
    78   40   41 1    
    79   40   42 1    
    80   40  102 1    
    81   41  103 1    
    82   41  104 1    
    83   41  105 1    
    84   42   43 am   BACKBONE|DICT|INTERRES
    85   42  106 1    
    86   43   44 2    
    87   43   45 1    
    88   45   46 1    
    89   45   49 1    
    90   45  107 1    
    91   46   47 1    
    92   46  108 1    
    93   46  109 1    
    94   47   48 1    
    95   48  110 1    
    96   48  111 1    
    97   49   50 am   BACKBONE|DICT|INTERRES
    98   49  112 1    
    99   50   51 2    
   100   50   52 1    
   101   52   53 1    
   102   52   54 1    
   103   52  113 1    
   104   53  114 1    
   105   53  115 1    
   106   53  116 1    
   107   54   55 am   BACKBONE|DICT|INTERRES
   108   54  117 1    
   109   55   56 2    
   110   55   57 1    
   111   57   58 1    
   112   57   59 1    
   113   57  118 1    
   114   58  119 1    
   115   58  120 1    
   116   58  121 1    
   117   59   60 am   BACKBONE|DICT|INTERRES
   118   59  122 1    
   119   60   61 2    
   120   60   62 1    
   121   62   63 1    
   122   62   64 1    
   123   62  123 1    
   124   63  124 1    
   125   63  125 1    
   126   63  126 1    
   127   64   65 am   BACKBONE|DICT|INTERRES
   128   64  127 1    
   129   65   66 2    
@<TRIPOS>SUBSTRUCTURE
     1 UNK         1 GROUP             0       ****    0 ROOT    
