@<TRIPOS>MOLECULE
3R135
127   129    1
SMALL
USER_CHARGES


@<TRIPOS>ATOM
      1 CA        -83.7395   26.2339  -70.3927 C.3       0 UNK        -0.1998 
      2 C         -83.5839   26.8710  -71.7653 C.2       0 UNK         0.4909 
      3 O         -84.5131   26.8241  -72.5718 O.2       0 UNK        -0.5240 
      4 N         -82.4153   27.4676  -72.0341 N.am      1 UNK        -0.4739 
      5 CA        -82.0787   28.1179  -73.3087 C.3       1 UNK         0.0864 
      6 C6        -80.8572   29.0564  -73.1673 C.3       11 UNK        -0.0881 
      7 S7        -81.2039   30.4882  -72.0845 S.3       11 UNK        -0.2682 
      8 C8        -80.5380   29.9698  -70.4658 C.3       11 UNK         0.0289 
      9 C9        -79.0518   29.6491  -70.5240 C.ar      11 UNK        -0.0687 
     10 C10       -78.6022   28.3414  -70.3204 C.ar      11 UNK        -0.0823 
     11 C11       -77.2427   28.0327  -70.4264 C.ar      11 UNK        -0.0830 
     12 C12       -76.3254   29.0521  -70.7122 C.ar      11 UNK        -0.1021 
     13 C13       -76.7636   30.3672  -70.8994 C.ar      11 UNK        -0.0753 
     14 C14       -78.1264   30.6589  -70.7988 C.ar      11 UNK        -0.0933 
     15 C15       -75.7783   31.4837  -71.2093 C.3       11 UNK         0.0166 
     16 S16       -75.7137   31.8408  -72.9967 S.3       11 UNK        -0.2615 
     17 C17       -74.0664   31.2162  -73.4826 C.3       11 UNK        -0.0865 
     18 CA        -74.0882   30.3235  -74.7611 C.3       10 UNK         0.0862 
     19 C         -74.1303   31.1312  -76.0985 C.2       10 UNK         0.5551 
     20 N         -73.6645   30.5786  -77.2126 N.am      10 UNK        -0.7319 
     21 O         -74.5996   32.2655  -76.1417 O.2       10 UNK        -0.5018 
     22 N         -73.0431   29.2855  -74.7043 N.am      10 UNK        -0.4509 
     23 C         -71.7242   29.5259  -74.6881 C.2       10 UNK         0.4899 
     24 O         -71.2373   30.6490  -74.8237 O.2       10 UNK        -0.4839 
     25 CA        -70.7683   28.3550  -74.4191 C.3       9 UNK         0.0222 
     26 CB        -70.3362   28.3778  -72.9372 C.3       9 UNK        -0.1966 
     27 N         -71.2994   27.0324  -74.7721 N.am      9 UNK        -0.4218 
     28 C         -70.5244   25.9493  -74.9299 C.2       9 UNK         0.5020 
     29 O         -69.2937   25.9682  -74.8604 O.2       9 UNK        -0.5274 
     30 CA        -71.2274   24.6077  -75.1844 C.3       8 UNK         0.0270 
     31 CB        -71.8588   24.0743  -73.8876 C.3       8 UNK        -0.1976 
     32 N         -72.2283   24.6679  -76.2509 N.am      8 UNK        -0.4313 
     33 C         -71.9385   24.8556  -77.5472 C.2       8 UNK         0.5041 
     34 O         -70.7938   24.9916  -77.9820 O.2       8 UNK        -0.5577 
     35 CA        -73.1164   24.8842  -78.5355 C.3       7 UNK         0.0284 
     36 CB        -73.5301   23.4550  -78.9224 C.3       7 UNK        -0.1958 
     37 N         -74.2807   25.6074  -78.0252 N.am      7 UNK        -0.4454 
     38 C         -74.3145   26.9231  -77.7732 C.2       7 UNK         0.5089 
     39 O         -73.3759   27.6947  -77.9736 O.2       7 UNK        -0.5125 
     40 CA        -75.6035   27.4605  -77.1302 C.3       6 UNK         0.0408 
     41 CB        -76.7215   27.6174  -78.1716 C.3       6 UNK        -0.1791 
     42 N         -76.0667   26.6358  -76.0126 N.am      6 UNK        -0.4762 
     43 C         -75.3451   26.3620  -74.9146 C.2       6 UNK         0.5007 
     44 O         -74.2010   26.7740  -74.7120 O.2       6 UNK        -0.5032 
     45 CA        -76.0098   25.4530  -73.8713 C.3       5 UNK         0.0783 
     46 C46       -77.0407   26.2721  -73.0618 C.3       11 UNK        -0.0857 
     47 S47       -77.5212   25.4671  -71.5009 S.3       11 UNK        -0.2512 
     48 C48       -76.7711   26.5900  -70.2679 C.3       11 UNK         0.0225 
     49 N         -76.5881   24.2639  -74.5067 N.am      5 UNK        -0.4615 
     50 C         -75.8731   23.3287  -75.1513 C.2       4 UNK         0.5053 
     51 O         -74.6458   23.3371  -75.2264 O.2       4 UNK        -0.5105 
     52 CA        -76.6565   22.2288  -75.8859 C.3       4 UNK         0.0263 
     53 CB        -77.1221   21.1442  -74.9015 C.3       4 UNK        -0.1981 
     54 N         -77.8075   22.7527  -76.6226 N.am      4 UNK        -0.4224 
     55 C         -77.7402   23.6391  -77.6279 C.2       3 UNK         0.4895 
     56 O         -76.6861   24.0551  -78.1066 O.2       3 UNK        -0.5091 
     57 CA        -79.0761   24.1935  -78.1557 C.3       3 UNK         0.0250 
     58 CB        -79.5674   23.3652  -79.3531 C.3       3 UNK        -0.1996 
     59 N         -80.1241   24.2469  -77.1298 N.am      3 UNK        -0.4254 
     60 C         -80.0561   24.9881  -76.0148 C.2       2 UNK         0.5004 
     61 O         -79.1164   25.7434  -75.7523 O.2       2 UNK        -0.5226 
     62 CA        -81.1789   24.7588  -74.9895 C.3       2 UNK         0.0269 
     63 CB        -80.8683   23.5143  -74.1395 C.3       2 UNK        -0.1926 
     64 N         -81.3815   25.8922  -74.0868 N.am      2 UNK        -0.4687 
     65 C         -81.8581   27.0935  -74.4430 C.2       1 UNK         0.5165 
     66 O         -82.1578   27.3954  -75.5995 O.2       1 UNK        -0.5079 
     67 H67       -83.9354   25.1668  -70.4948 H         1 UNK         0.0900 
     68 H68       -84.5779   26.6853  -69.8629 H         1 UNK         0.0900 
     69 H69       -82.8462   26.3576  -69.7807 H         1 UNK         0.0900 
     70 H70       -81.6932   27.4829  -71.3303 H         1 UNK         0.2959 
     71 H71       -82.9361   28.7257  -73.6081 H         1 UNK         0.1079 
     72 H72       -80.5791   29.4624  -74.1421 H         1 UNK         0.0837 
     73 H73       -79.9811   28.5087  -72.8177 H         1 UNK         0.0837 
     74 H74       -80.6983   30.7759  -69.7485 H         1 UNK         0.0685 
     75 H75       -81.1091   29.1183  -70.0946 H         1 UNK         0.0685 
     76 H76       -79.3103   27.5521  -70.1087 H         1 UNK         0.1434 
     77 H77       -75.2723   28.8225  -70.8021 H         1 UNK         0.1329 
     78 H78       -78.4719   31.6715  -70.9575 H         1 UNK         0.1335 
     79 H79       -74.7896   31.2456  -70.8155 H         1 UNK         0.0680 
     80 H80       -76.0892   32.3914  -70.6897 H         1 UNK         0.0680 
     81 H81       -73.6618   30.6421  -72.6484 H         1 UNK         0.1032 
     82 H82       -73.3863   32.0607  -73.6084 H         1 UNK         0.1032 
     83 H83       -75.0222   29.7610  -74.7444 H         1 UNK         0.0461 
     84 H84       -73.3133   29.6288  -77.2223 H         1 UNK         0.3453 
     85 H85       -73.6934   31.1080  -78.0688 H         1 UNK         0.3453 
     86 H86       -73.3927   28.3347  -74.6179 H         1 UNK         0.2984 
     87 H87       -69.8871   28.5390  -75.0377 H         1 UNK         0.0554 
     88 H88       -69.5308   27.6710  -72.7386 H         1 UNK         0.0847 
     89 H89       -71.1673   28.1327  -72.2750 H         1 UNK         0.0847 
     90 H90       -69.9689   29.3637  -72.6483 H         1 UNK         0.0847 
     91 H91       -72.3069   26.9279  -74.8577 H         1 UNK         0.3141 
     92 H92       -70.4619   23.8930  -75.4946 H         1 UNK         0.0743 
     93 H93       -72.2359   23.0602  -74.0201 H         1 UNK         0.0784 
     94 H94       -71.1261   24.0415  -73.0801 H         1 UNK         0.0784 
     95 H95       -72.6869   24.6988  -73.5520 H         1 UNK         0.0784 
     96 H96       -73.1918   24.4926  -75.9810 H         1 UNK         0.3213 
     97 H97       -72.7776   25.3974  -79.4381 H         1 UNK         0.0855 
     98 H98       -73.9139   22.9005  -78.0649 H         1 UNK         0.0814 
     99 H99       -72.6825   22.8965  -79.3218 H         1 UNK         0.0814 
    100 H100      -74.3053   23.4609  -79.6889 H         1 UNK         0.0814 
    101 H101      -75.1256   25.0605  -77.8689 H         1 UNK         0.3105 
    102 H102      -75.3898   28.4491  -76.7265 H         1 UNK         0.0547 
    103 H103      -76.9647   26.6714  -78.6540 H         1 UNK         0.0837 
    104 H104      -77.6337   28.0099  -77.7218 H         1 UNK         0.0837 
    105 H105      -76.4220   28.3125  -78.9571 H         1 UNK         0.0837 
    106 H106      -77.0059   26.2572  -76.0763 H         1 UNK         0.3020 
    107 H107      -75.2205   25.1196  -73.1936 H         1 UNK         0.1245 
    108 H108      -76.6428   27.2633  -72.8432 H         1 UNK         0.0781 
    109 H109      -77.9459   26.4541  -73.6401 H         1 UNK         0.0781 
    110 H110      -77.0257   26.2389  -69.2670 H         1 UNK         0.0836 
    111 H111      -75.6849   26.5253  -70.3488 H         1 UNK         0.0836 
    112 H112      -77.5959   24.2177  -74.5309 H         1 UNK         0.3022 
    113 H113      -75.9807   21.7685  -76.6099 H         1 UNK         0.0747 
    114 H114      -77.6039   20.3163  -75.4221 H         1 UNK         0.0793 
    115 H115      -76.2760   20.7295  -74.3515 H         1 UNK         0.0793 
    116 H116      -77.8273   21.5360  -74.1672 H         1 UNK         0.0793 
    117 H117      -78.7202   22.4558  -76.3123 H         1 UNK         0.3047 
    118 H118      -78.8958   25.2147  -78.4969 H         1 UNK         0.0822 
    119 H119      -80.4677   23.7961  -79.7916 H         1 UNK         0.0807 
    120 H120      -79.7895   22.3353  -79.0707 H         1 UNK         0.0807 
    121 H121      -78.8114   23.3316  -80.1392 H         1 UNK         0.0807 
    122 H122      -80.9247   23.6472  -77.2716 H         1 UNK         0.2946 
    123 H123      -82.1125   24.5956  -75.5329 H         1 UNK         0.1144 
    124 H124      -81.6731   23.3063  -73.4338 H         1 UNK         0.0793 
    125 H125      -79.9466   23.6352  -73.5681 H         1 UNK         0.0793 
    126 H126      -80.7540   22.6257  -74.7615 H         1 UNK         0.0793 
    127 H127      -81.1525   25.7437  -73.1156 H         1 UNK         0.2896 
@<TRIPOS>BOND
     1    1    2 1    
     2    1   67 1    
     3    1   68 1    
     4    1   69 1    
     5    2    3 2    
     6    2    4 am   BACKBONE|DICT|INTERRES
     7    4    5 1    
     8    4   70 1    
     9    5    6 1    
    10    5   65 1    
    11    5   71 1    
    12    6    7 1    
    13    6   72 1    
    14    6   73 1    
    15    7    8 1    
    16    8    9 1    
    17    8   74 1    
    18    8   75 1    
    19    9   10 ar   
    20    9   14 ar   
    21   10   11 ar   
    22   10   76 1    
    23   11   12 ar   
    24   11   48 1    
    25   12   13 ar   
    26   12   77 1    
    27   13   14 ar   
    28   13   15 1    
    29   14   78 1    
    30   15   16 1    
    31   15   79 1    
    32   15   80 1    
    33   16   17 1    
    34   17   18 1    
    35   17   81 1    
    36   17   82 1    
    37   18   19 1    
    38   18   22 1    
    39   18   83 1    
    40   19   20 am   BACKBONE|DICT|INTERRES
    41   19   21 2    
    42   20   84 1    
    43   20   85 1    
    44   22   23 am   BACKBONE|DICT|INTERRES
    45   22   86 1    
    46   23   24 2    
    47   23   25 1    
    48   25   26 1    
    49   25   27 1    
    50   25   87 1    
    51   26   88 1    
    52   26   89 1    
    53   26   90 1    
    54   27   28 am   BACKBONE|DICT|INTERRES
    55   27   91 1    
    56   28   29 2    
    57   28   30 1    
    58   30   31 1    
    59   30   32 1    
    60   30   92 1    
    61   31   93 1    
    62   31   94 1    
    63   31   95 1    
    64   32   33 am   BACKBONE|DICT|INTERRES
    65   32   96 1    
    66   33   34 2    
    67   33   35 1    
    68   35   36 1    
    69   35   37 1    
    70   35   97 1    
    71   36   98 1    
    72   36   99 1    
    73   36  100 1    
    74   37   38 am   BACKBONE|DICT|INTERRES
    75   37  101 1    
    76   38   39 2    
    77   38   40 1    
    78   40   41 1    
    79   40   42 1    
    80   40  102 1    
    81   41  103 1    
    82   41  104 1    
    83   41  105 1    
    84   42   43 am   BACKBONE|DICT|INTERRES
    85   42  106 1    
    86   43   44 2    
    87   43   45 1    
    88   45   46 1    
    89   45   49 1    
    90   45  107 1    
    91   46   47 1    
    92   46  108 1    
    93   46  109 1    
    94   47   48 1    
    95   48  110 1    
    96   48  111 1    
    97   49   50 am   BACKBONE|DICT|INTERRES
    98   49  112 1    
    99   50   51 2    
   100   50   52 1    
   101   52   53 1    
   102   52   54 1    
   103   52  113 1    
   104   53  114 1    
   105   53  115 1    
   106   53  116 1    
   107   54   55 am   BACKBONE|DICT|INTERRES
   108   54  117 1    
   109   55   56 2    
   110   55   57 1    
   111   57   58 1    
   112   57   59 1    
   113   57  118 1    
   114   58  119 1    
   115   58  120 1    
   116   58  121 1    
   117   59   60 am   BACKBONE|DICT|INTERRES
   118   59  122 1    
   119   60   61 2    
   120   60   62 1    
   121   62   63 1    
   122   62   64 1    
   123   62  123 1    
   124   63  124 1    
   125   63  125 1    
   126   63  126 1    
   127   64   65 am   BACKBONE|DICT|INTERRES
   128   64  127 1    
   129   65   66 2    
@<TRIPOS>SUBSTRUCTURE
     1 UNK         1 GROUP             0       ****    0 ROOT    
