@<TRIPOS>MOLECULE
3R135
127   129    1
SMALL
USER_CHARGES


@<TRIPOS>ATOM
      1 CA        -84.6385   25.8903  -71.8039 C.3       0 UNK        -0.1998 
      2 C         -84.2025   26.4853  -73.1342 C.2       0 UNK         0.4909 
      3 O         -84.9622   26.4440  -74.1024 O.2       0 UNK        -0.5240 
      4 N         -82.9833   27.0373  -73.1900 N.am      1 UNK        -0.4739 
      5 CA        -82.4013   27.6665  -74.3857 C.3       1 UNK         0.0864 
      6 C6        -81.2249   28.6091  -74.0292 C.3       11 UNK        -0.0881 
      7 S7        -81.6999   29.9100  -72.8437 S.3       11 UNK        -0.2682 
      8 C8        -80.2558   31.0240  -72.9443 C.3       11 UNK         0.0289 
      9 C9        -78.9369   30.4107  -72.4712 C.ar      11 UNK        -0.0687 
     10 C10       -78.8899   29.4795  -71.4266 C.ar      11 UNK        -0.0823 
     11 C11       -77.6722   28.9446  -70.9990 C.ar      11 UNK        -0.0830 
     12 C12       -76.4876   29.3770  -71.6018 C.ar      11 UNK        -0.1021 
     13 C13       -76.5095   30.3058  -72.6476 C.ar      11 UNK        -0.0753 
     14 C14       -77.7410   30.8142  -73.0749 C.ar      11 UNK        -0.0933 
     15 C15       -75.2288   30.7331  -73.3649 C.3       11 UNK         0.0166 
     16 S16       -73.8315   31.1202  -72.2536 S.3       11 UNK        -0.2615 
     17 C17       -72.8936   29.5525  -72.3046 C.3       11 UNK        -0.0865 
     18 CA        -71.9608   29.4492  -73.5504 C.3       10 UNK         0.0862 
     19 C         -70.4990   29.9268  -73.2891 C.2       10 UNK         0.5551 
     20 N         -69.4884   29.3418  -73.9240 N.am      10 UNK        -0.7319 
     21 O         -70.2722   30.8583  -72.5208 O.2       10 UNK        -0.5018 
     22 N         -72.0607   28.1512  -74.2352 N.am      10 UNK        -0.4509 
     23 C         -71.7484   26.9523  -73.7198 C.2       10 UNK         0.4899 
     24 O         -71.4418   26.7745  -72.5403 O.2       10 UNK        -0.4839 
     25 CA        -71.7195   25.7449  -74.6821 C.3       9 UNK         0.0222 
     26 CB        -72.9033   24.7944  -74.4426 C.3       9 UNK        -0.1966 
     27 N         -71.6780   26.1187  -76.0986 N.am      9 UNK        -0.4218 
     28 C         -70.6360   26.7138  -76.6974 C.2       9 UNK         0.5020 
     29 O         -69.5673   26.9497  -76.1312 O.2       9 UNK        -0.5274 
     30 CA        -70.8261   27.1675  -78.1564 C.3       8 UNK         0.0270 
     31 CB        -70.2907   26.0995  -79.1239 C.3       8 UNK        -0.1976 
     32 N         -72.2087   27.5025  -78.5208 N.am      8 UNK        -0.4313 
     33 C         -72.9709   28.4342  -77.9299 C.2       8 UNK         0.5041 
     34 O         -72.6065   29.0949  -76.9556 O.2       8 UNK        -0.5577 
     35 CA        -74.3746   28.6863  -78.5123 C.3       7 UNK         0.0284 
     36 CB        -74.7445   27.7891  -79.7179 C.3       7 UNK        -0.1958 
     37 N         -75.4088   28.6171  -77.4740 N.am      7 UNK        -0.4454 
     38 C         -75.7287   27.5514  -76.7260 C.2       7 UNK         0.5089 
     39 O         -75.1796   26.4514  -76.8216 O.2       7 UNK        -0.5125 
     40 CA        -76.9087   27.7587  -75.7574 C.3       6 UNK         0.0408 
     41 CB        -78.2295   27.8350  -76.5404 C.3       6 UNK        -0.1791 
     42 N         -77.0247   26.7041  -74.7478 N.am      6 UNK        -0.4762 
     43 C         -76.1670   26.5178  -73.7346 C.2       6 UNK         0.5007 
     44 O         -75.1749   27.2192  -73.5550 O.2       6 UNK        -0.5032 
     45 CA        -76.4285   25.3400  -72.7781 C.3       5 UNK         0.0783 
     46 C46       -77.4364   25.7000  -71.6538 C.3       11 UNK        -0.0857 
     47 S47       -76.6052   26.4619  -70.2180 S.3       11 UNK        -0.2512 
     48 C48       -77.6482   27.9194  -69.8696 C.3       11 UNK         0.0225 
     49 N         -76.8441   24.1509  -73.5250 N.am      5 UNK        -0.4615 
     50 C         -76.2369   22.9569  -73.4627 C.2       4 UNK         0.5053 
     51 O         -75.2866   22.7095  -72.7201 O.2       4 UNK        -0.5105 
     52 CA        -76.7714   21.8342  -74.3752 C.3       4 UNK         0.0263 
     53 CB        -77.7002   20.8981  -73.5848 C.3       4 UNK        -0.1981 
     54 N         -77.4887   22.3397  -75.5458 N.am      4 UNK        -0.4224 
     55 C         -76.9242   23.0049  -76.5630 C.2       3 UNK         0.4895 
     56 O         -75.7067   23.0907  -76.7208 O.2       3 UNK        -0.5091 
     57 CA        -77.8663   23.7099  -77.5625 C.3       3 UNK         0.0250 
     58 CB        -77.7573   23.0659  -78.9548 C.3       3 UNK        -0.1996 
     59 N         -79.2856   23.7621  -77.1732 N.am      3 UNK        -0.4254 
     60 C         -79.7860   24.3641  -76.0849 C.2       2 UNK         0.5004 
     61 O         -79.0904   24.9008  -75.2187 O.2       2 UNK        -0.5226 
     62 CA        -81.3071   24.2774  -75.8923 C.3       2 UNK         0.0269 
     63 CB        -81.6823   22.9394  -75.2337 C.3       2 UNK        -0.1926 
     64 N         -81.7971   25.3674  -75.0486 N.am      2 UNK        -0.4687 
     65 C         -81.9586   26.6363  -75.4495 C.2       1 UNK         0.5165 
     66 O         -81.7720   27.0088  -76.6089 O.2       1 UNK        -0.5079 
     67 H67       -84.8523   24.8281  -71.9199 H         1 UNK         0.0900 
     68 H68       -85.5438   26.3838  -71.4514 H         1 UNK         0.0900 
     69 H69       -83.8722   26.0006  -71.0368 H         1 UNK         0.0900 
     70 H70       -82.4112   27.0704  -72.3580 H         1 UNK         0.2959 
     71 H71       -83.1806   28.2726  -74.8538 H         1 UNK         0.1079 
     72 H72       -80.3864   28.0446  -73.6156 H         1 UNK         0.0837 
     73 H73       -80.8545   29.1035  -74.9291 H         1 UNK         0.0837 
     74 H74       -80.1633   31.3729  -73.9741 H         1 UNK         0.0685 
     75 H75       -80.4592   31.9071  -72.3374 H         1 UNK         0.0685 
     76 H76       -79.8049   29.1681  -70.9425 H         1 UNK         0.1434 
     77 H77       -75.5481   28.9657  -71.2657 H         1 UNK         0.1329 
     78 H78       -77.7699   31.5310  -73.8843 H         1 UNK         0.1335 
     79 H79       -74.9368   29.9513  -74.0673 H         1 UNK         0.0680 
     80 H80       -75.4198   31.6222  -73.9674 H         1 UNK         0.0680 
     81 H81       -73.6053   28.7298  -72.2920 H         1 UNK         0.1032 
     82 H82       -72.3296   29.4435  -71.3766 H         1 UNK         0.1032 
     83 H83       -72.3304   30.1468  -74.3025 H         1 UNK         0.0461 
     84 H84       -69.6531   28.5801  -74.5686 H         1 UNK         0.3453 
     85 H85       -68.5485   29.6637  -73.7557 H         1 UNK         0.3453 
     86 H86       -72.2876   28.2187  -75.2232 H         1 UNK         0.2984 
     87 H87       -70.8047   25.1924  -74.4575 H         1 UNK         0.0554 
     88 H88       -72.7589   23.8443  -74.9570 H         1 UNK         0.0847 
     89 H89       -73.8396   25.2195  -74.8006 H         1 UNK         0.0847 
     90 H90       -73.0275   24.5716  -73.3819 H         1 UNK         0.0847 
     91 H91       -72.5336   25.9996  -76.6253 H         1 UNK         0.3141 
     92 H92       -70.2317   28.0741  -78.2876 H         1 UNK         0.0743 
     93 H93       -70.8696   25.1766  -79.0677 H         1 UNK         0.0784 
     94 H94       -70.3133   26.4496  -80.1562 H         1 UNK         0.0784 
     95 H95       -69.2543   25.8482  -78.8931 H         1 UNK         0.0784 
     96 H96       -72.6017   27.0010  -79.3042 H         1 UNK         0.3213 
     97 H97       -74.3660   29.7185  -78.8659 H         1 UNK         0.0855 
     98 H98       -74.7511   26.7289  -79.4618 H         1 UNK         0.0814 
     99 H99       -74.0494   27.9304  -80.5466 H         1 UNK         0.0814 
    100 H100      -75.7363   28.0376  -80.0960 H         1 UNK         0.0814 
    101 H101      -75.8992   29.4828  -77.2990 H         1 UNK         0.3105 
    102 H102      -76.7618   28.7049  -75.2337 H         1 UNK         0.0547 
    103 H103      -78.2490   28.6972  -77.2075 H         1 UNK         0.0837 
    104 H104      -78.3895   26.9476  -77.1528 H         1 UNK         0.0837 
    105 H105      -79.0804   27.9288  -75.8695 H         1 UNK         0.0837 
    106 H106      -77.8062   26.0625  -74.8648 H         1 UNK         0.3020 
    107 H107      -75.4622   25.1307  -72.3126 H         1 UNK         0.1245 
    108 H108      -77.9228   24.7964  -71.2827 H         1 UNK         0.0781 
    109 H109      -78.2433   26.3365  -72.0226 H         1 UNK         0.0781 
    110 H110      -77.2754   28.4069  -68.9680 H         1 UNK         0.0836 
    111 H111      -78.6567   27.5740  -69.6367 H         1 UNK         0.0836 
    112 H112      -77.6209   24.2759  -74.1672 H         1 UNK         0.3022 
    113 H113      -75.9131   21.2560  -74.7242 H         1 UNK         0.0747 
    114 H114      -78.0341   20.0599  -74.1967 H         1 UNK         0.0793 
    115 H115      -77.1859   20.4797  -72.7184 H         1 UNK         0.0793 
    116 H116      -78.5842   21.4211  -73.2174 H         1 UNK         0.0793 
    117 H117      -78.4962   22.3048  -75.5094 H         1 UNK         0.3047 
    118 H118      -77.5112   24.7396  -77.6381 H         1 UNK         0.0822 
    119 H119      -78.3311   23.6216  -79.6967 H         1 UNK         0.0807 
    120 H120      -78.1162   22.0359  -78.9517 H         1 UNK         0.0807 
    121 H121      -76.7221   23.0490  -79.2992 H         1 UNK         0.0807 
    122 H122      -79.9301   23.3159  -77.8108 H         1 UNK         0.2946 
    123 H123      -81.7911   24.3452  -76.8696 H         1 UNK         0.1144 
    124 H124      -81.3745   22.0945  -75.8512 H         1 UNK         0.0793 
    125 H125      -82.7604   22.8567  -75.0933 H         1 UNK         0.0793 
    126 H126      -81.2082   22.8211  -74.2581 H         1 UNK         0.0793 
    127 H127      -81.9428   25.1586  -74.0722 H         1 UNK         0.2896 
@<TRIPOS>BOND
     1    1    2 1    
     2    1   67 1    
     3    1   68 1    
     4    1   69 1    
     5    2    3 2    
     6    2    4 am   BACKBONE|DICT|INTERRES
     7    4    5 1    
     8    4   70 1    
     9    5    6 1    
    10    5   65 1    
    11    5   71 1    
    12    6    7 1    
    13    6   72 1    
    14    6   73 1    
    15    7    8 1    
    16    8    9 1    
    17    8   74 1    
    18    8   75 1    
    19    9   10 ar   
    20    9   14 ar   
    21   10   11 ar   
    22   10   76 1    
    23   11   12 ar   
    24   11   48 1    
    25   12   13 ar   
    26   12   77 1    
    27   13   14 ar   
    28   13   15 1    
    29   14   78 1    
    30   15   16 1    
    31   15   79 1    
    32   15   80 1    
    33   16   17 1    
    34   17   18 1    
    35   17   81 1    
    36   17   82 1    
    37   18   19 1    
    38   18   22 1    
    39   18   83 1    
    40   19   20 am   BACKBONE|DICT|INTERRES
    41   19   21 2    
    42   20   84 1    
    43   20   85 1    
    44   22   23 am   BACKBONE|DICT|INTERRES
    45   22   86 1    
    46   23   24 2    
    47   23   25 1    
    48   25   26 1    
    49   25   27 1    
    50   25   87 1    
    51   26   88 1    
    52   26   89 1    
    53   26   90 1    
    54   27   28 am   BACKBONE|DICT|INTERRES
    55   27   91 1    
    56   28   29 2    
    57   28   30 1    
    58   30   31 1    
    59   30   32 1    
    60   30   92 1    
    61   31   93 1    
    62   31   94 1    
    63   31   95 1    
    64   32   33 am   BACKBONE|DICT|INTERRES
    65   32   96 1    
    66   33   34 2    
    67   33   35 1    
    68   35   36 1    
    69   35   37 1    
    70   35   97 1    
    71   36   98 1    
    72   36   99 1    
    73   36  100 1    
    74   37   38 am   BACKBONE|DICT|INTERRES
    75   37  101 1    
    76   38   39 2    
    77   38   40 1    
    78   40   41 1    
    79   40   42 1    
    80   40  102 1    
    81   41  103 1    
    82   41  104 1    
    83   41  105 1    
    84   42   43 am   BACKBONE|DICT|INTERRES
    85   42  106 1    
    86   43   44 2    
    87   43   45 1    
    88   45   46 1    
    89   45   49 1    
    90   45  107 1    
    91   46   47 1    
    92   46  108 1    
    93   46  109 1    
    94   47   48 1    
    95   48  110 1    
    96   48  111 1    
    97   49   50 am   BACKBONE|DICT|INTERRES
    98   49  112 1    
    99   50   51 2    
   100   50   52 1    
   101   52   53 1    
   102   52   54 1    
   103   52  113 1    
   104   53  114 1    
   105   53  115 1    
   106   53  116 1    
   107   54   55 am   BACKBONE|DICT|INTERRES
   108   54  117 1    
   109   55   56 2    
   110   55   57 1    
   111   57   58 1    
   112   57   59 1    
   113   57  118 1    
   114   58  119 1    
   115   58  120 1    
   116   58  121 1    
   117   59   60 am   BACKBONE|DICT|INTERRES
   118   59  122 1    
   119   60   61 2    
   120   60   62 1    
   121   62   63 1    
   122   62   64 1    
   123   62  123 1    
   124   63  124 1    
   125   63  125 1    
   126   63  126 1    
   127   64   65 am   BACKBONE|DICT|INTERRES
   128   64  127 1    
   129   65   66 2    
@<TRIPOS>SUBSTRUCTURE
     1 UNK         1 GROUP             0       ****    0 ROOT    
