@<TRIPOS>MOLECULE
3R135
127   129    1
SMALL
USER_CHARGES


@<TRIPOS>ATOM
      1 CA        -76.7889   21.2061  -73.4301 C.3       0 UNK        -0.1998 
      2 C         -77.6057   22.2635  -72.7031 C.2       0 UNK         0.4909 
      3 O         -78.6490   21.9415  -72.1350 O.2       0 UNK        -0.5240 
      4 N         -77.1414   23.5215  -72.7118 N.am      1 UNK        -0.4739 
      5 CA        -77.8205   24.6665  -72.0965 C.3       1 UNK         0.0864 
      6 C6        -76.8947   25.9143  -72.0070 C.3       11 UNK        -0.0881 
      7 S7        -77.1052   26.8401  -70.4502 S.3       11 UNK        -0.2682 
      8 C8        -78.6227   27.8089  -70.7370 C.3       11 UNK         0.0289 
      9 C9        -78.4342   28.9667  -71.7084 C.ar      11 UNK        -0.0687 
     10 C10       -78.9567   28.9034  -73.0057 C.ar      11 UNK        -0.0823 
     11 C11       -78.8760   30.0109  -73.8575 C.ar      11 UNK        -0.0830 
     12 C12       -78.2658   31.1834  -73.4017 C.ar      11 UNK        -0.1021 
     13 C13       -77.7273   31.2554  -72.1139 C.ar      11 UNK        -0.0753 
     14 C14       -77.8098   30.1404  -71.2748 C.ar      11 UNK        -0.0933 
     15 C15       -77.1248   32.5579  -71.6014 C.3       11 UNK         0.0166 
     16 S16       -75.7665   33.1807  -72.6430 S.3       11 UNK        -0.2615 
     17 C17       -74.4451   31.9632  -72.3222 C.3       11 UNK        -0.0865 
     18 CA        -73.9855   31.2132  -73.6007 C.3       10 UNK         0.0862 
     19 C         -73.1342   32.1028  -74.5451 C.2       10 UNK         0.5551 
     20 N         -73.7685   32.8823  -75.4086 N.am      10 UNK        -0.7319 
     21 O         -71.9049   32.1015  -74.4916 O.2       10 UNK        -0.5018 
     22 N         -73.2305   30.0068  -73.2513 N.am      10 UNK        -0.4509 
     23 C         -73.7554   28.7987  -73.0419 C.2       10 UNK         0.4899 
     24 O         -74.9591   28.5504  -73.0838 O.2       10 UNK        -0.4839 
     25 CA        -72.7671   27.6780  -72.7118 C.3       9 UNK         0.0222 
     26 CB        -72.9131   27.2456  -71.2391 C.3       9 UNK        -0.1966 
     27 N         -73.0118   26.5573  -73.6160 N.am      9 UNK        -0.4218 
     28 C         -72.1783   25.5274  -73.8143 C.2       9 UNK         0.5020 
     29 O         -71.0889   25.4073  -73.2519 O.2       9 UNK        -0.5274 
     30 CA        -72.6238   24.4505  -74.8123 C.3       8 UNK         0.0270 
     31 CB        -73.8564   23.6943  -74.2931 C.3       8 UNK        -0.1976 
     32 N         -72.9286   25.0509  -76.1091 N.am      8 UNK        -0.4313 
     33 C         -72.1800   24.9286  -77.2139 C.2       8 UNK         0.5041 
     34 O         -71.1768   24.2175  -77.2890 O.2       8 UNK        -0.5577 
     35 CA        -72.6113   25.7377  -78.4540 C.3       7 UNK         0.0284 
     36 CB        -73.4075   24.8518  -79.4253 C.3       7 UNK        -0.1958 
     37 N         -73.4011   26.9267  -78.1223 N.am      7 UNK        -0.4454 
     38 C         -72.9181   28.0001  -77.4795 C.2       7 UNK         0.5089 
     39 O         -71.7264   28.1531  -77.2118 O.2       7 UNK        -0.5125 
     40 CA        -73.9242   29.0746  -77.0252 C.3       6 UNK         0.0408 
     41 CB        -73.8591   30.2940  -77.9574 C.3       6 UNK        -0.1791 
     42 N         -75.3207   28.6381  -76.9132 N.am      6 UNK        -0.4762 
     43 C         -75.7927   27.6109  -76.1924 C.2       6 UNK         0.5007 
     44 O         -75.0705   26.8231  -75.5752 O.2       6 UNK        -0.5032 
     45 CA        -77.3216   27.3898  -76.1758 C.3       5 UNK         0.0783 
     46 C46       -78.1523   28.3107  -77.1111 C.3       11 UNK        -0.0857 
     47 S47       -78.2350   30.0474  -76.5589 S.3       11 UNK        -0.2512 
     48 C48       -79.4986   29.9791  -75.2475 C.3       11 UNK         0.0225 
     49 N         -77.6414   25.9765  -76.3884 N.am      5 UNK        -0.4615 
     50 C         -77.3113   25.2356  -77.4558 C.2       4 UNK         0.5053 
     51 O         -76.7160   25.6769  -78.4395 O.2       4 UNK        -0.5105 
     52 CA        -77.6830   23.7445  -77.4145 C.3       4 UNK         0.0263 
     53 CB        -76.5386   22.9354  -76.7850 C.3       4 UNK        -0.1981 
     54 N         -78.9209   23.4716  -76.6790 N.am      4 UNK        -0.4224 
     55 C         -80.1558   23.6435  -77.1736 C.2       3 UNK         0.4895 
     56 O         -80.3952   24.0783  -78.3000 O.2       3 UNK        -0.5091 
     57 CA        -81.3156   23.2785  -76.2393 C.3       3 UNK         0.0250 
     58 CB        -81.3731   21.7566  -75.9927 C.3       3 UNK        -0.1996 
     59 N         -81.1623   24.0211  -74.9925 N.am      3 UNK        -0.4254 
     60 C         -82.0379   24.1434  -73.9921 C.2       2 UNK         0.5004 
     61 O         -83.1331   23.5790  -73.9684 O.2       2 UNK        -0.5226 
     62 CA        -81.6101   25.0692  -72.8285 C.3       2 UNK         0.0269 
     63 CB        -82.6313   25.0815  -71.6754 C.3       2 UNK        -0.1926 
     64 N         -80.2818   24.7654  -72.2747 N.am      2 UNK        -0.4687 
     65 C         -79.1067   24.9889  -72.8783 C.2       1 UNK         0.5165 
     66 O         -79.0076   25.4270  -74.0262 O.2       1 UNK        -0.5079 
     67 H67       -76.6122   20.3541  -72.7740 H         1 UNK         0.0900 
     68 H68       -75.8206   21.5845  -73.7526 H         1 UNK         0.0900 
     69 H69       -77.3285   20.8518  -74.3079 H         1 UNK         0.0900 
     70 H70       -76.2827   23.7308  -73.1966 H         1 UNK         0.2959 
     71 H71       -78.0951   24.3600  -71.0844 H         1 UNK         0.1079 
     72 H72       -75.8487   25.6049  -72.0234 H         1 UNK         0.0837 
     73 H73       -76.9940   26.5921  -72.8576 H         1 UNK         0.0837 
     74 H74       -79.4312   27.1566  -71.0634 H         1 UNK         0.0685 
     75 H75       -78.9491   28.2116  -69.7770 H         1 UNK         0.0685 
     76 H76       -79.4553   28.0046  -73.3403 H         1 UNK         0.1434 
     77 H77       -78.2198   32.0488  -74.0490 H         1 UNK         0.1329 
     78 H78       -77.4181   30.1926  -70.2682 H         1 UNK         0.1335 
     79 H79       -76.7658   32.4495  -70.5767 H         1 UNK         0.0680 
     80 H80       -77.9110   33.3134  -71.5700 H         1 UNK         0.0680 
     81 H81       -74.8124   31.2434  -71.5889 H         1 UNK         0.1032 
     82 H82       -73.6041   32.4674  -71.8425 H         1 UNK         0.1032 
     83 H83       -74.8700   30.9026  -74.1627 H         1 UNK         0.0461 
     84 H84       -74.7756   32.9232  -75.4207 H         1 UNK         0.3453 
     85 H85       -73.2327   33.4757  -76.0218 H         1 UNK         0.3453 
     86 H86       -72.2264   30.1311  -73.2437 H         1 UNK         0.2984 
     87 H87       -71.7499   28.0396  -72.8772 H         1 UNK         0.0554 
     88 H88       -72.1798   26.4872  -70.9656 H         1 UNK         0.0847 
     89 H89       -73.9052   26.8411  -71.0361 H         1 UNK         0.0847 
     90 H90       -72.7650   28.0927  -70.5684 H         1 UNK         0.0847 
     91 H91       -73.8753   26.6226  -74.1543 H         1 UNK         0.3141 
     92 H92       -71.8077   23.7308  -74.9067 H         1 UNK         0.0743 
     93 H93       -74.7342   24.3388  -74.2469 H         1 UNK         0.0784 
     94 H94       -74.0883   22.8497  -74.9415 H         1 UNK         0.0784 
     95 H95       -73.6802   23.2970  -73.2924 H         1 UNK         0.0784 
     96 H96       -73.7184   25.6927  -76.1268 H         1 UNK         0.3213 
     97 H97       -71.7019   26.0682  -78.9608 H         1 UNK         0.0855 
     98 H98       -74.3287   24.4833  -78.9738 H         1 UNK         0.0814 
     99 H99       -72.8229   23.9815  -79.7268 H         1 UNK         0.0814 
    100 H100      -73.6722   25.3939  -80.3333 H         1 UNK         0.0814 
    101 H101      -74.3968   26.8791  -78.2956 H         1 UNK         0.3105 
    102 H102      -73.6132   29.3928  -76.0302 H         1 UNK         0.0547 
    103 H103      -72.8442   30.6908  -78.0113 H         1 UNK         0.0837 
    104 H104      -74.1657   30.0416  -78.9732 H         1 UNK         0.0837 
    105 H105      -74.4999   31.1016  -77.6039 H         1 UNK         0.0837 
    106 H106      -76.0055   29.2258  -77.3699 H         1 UNK         0.3020 
    107 H107      -77.6200   27.5988  -75.1485 H         1 UNK         0.1245 
    108 H108      -77.7691   28.2791  -78.1327 H         1 UNK         0.0781 
    109 H109      -79.1753   27.9376  -77.1827 H         1 UNK         0.0781 
    110 H110      -80.1569   30.8422  -75.3564 H         1 UNK         0.0836 
    111 H111      -80.1342   29.1012  -75.3728 H         1 UNK         0.0836 
    112 H112      -78.1161   25.5365  -75.6049 H         1 UNK         0.3022 
    113 H113      -77.8087   23.4083  -78.4462 H         1 UNK         0.0747 
    114 H114      -76.7347   21.8642  -76.8342 H         1 UNK         0.0793 
    115 H115      -75.5961   23.1153  -77.3039 H         1 UNK         0.0793 
    116 H116      -76.3916   23.2041  -75.7400 H         1 UNK         0.0793 
    117 H117      -78.8236   23.0983  -75.7469 H         1 UNK         0.3047 
    118 H118      -82.2457   23.5954  -76.7155 H         1 UNK         0.0822 
    119 H119      -82.2732   21.4747  -75.4465 H         1 UNK         0.0807 
    120 H120      -80.5148   21.4026  -75.4208 H         1 UNK         0.0807 
    121 H121      -81.3885   21.2085  -76.9357 H         1 UNK         0.0807 
    122 H122      -80.3055   24.5633  -74.9000 H         1 UNK         0.2946 
    123 H123      -81.5759   26.0795  -73.2429 H         1 UNK         0.1144 
    124 H124      -82.3493   25.7961  -70.9019 H         1 UNK         0.0793 
    125 H125      -82.7241   24.0997  -71.2096 H         1 UNK         0.0793 
    126 H126      -83.6218   25.3697  -72.0305 H         1 UNK         0.0793 
    127 H127      -80.2753   24.3295  -71.3633 H         1 UNK         0.2896 
@<TRIPOS>BOND
     1    1    2 1    
     2    1   67 1    
     3    1   68 1    
     4    1   69 1    
     5    2    3 2    
     6    2    4 am   BACKBONE|DICT|INTERRES
     7    4    5 1    
     8    4   70 1    
     9    5    6 1    
    10    5   65 1    
    11    5   71 1    
    12    6    7 1    
    13    6   72 1    
    14    6   73 1    
    15    7    8 1    
    16    8    9 1    
    17    8   74 1    
    18    8   75 1    
    19    9   10 ar   
    20    9   14 ar   
    21   10   11 ar   
    22   10   76 1    
    23   11   12 ar   
    24   11   48 1    
    25   12   13 ar   
    26   12   77 1    
    27   13   14 ar   
    28   13   15 1    
    29   14   78 1    
    30   15   16 1    
    31   15   79 1    
    32   15   80 1    
    33   16   17 1    
    34   17   18 1    
    35   17   81 1    
    36   17   82 1    
    37   18   19 1    
    38   18   22 1    
    39   18   83 1    
    40   19   20 am   BACKBONE|DICT|INTERRES
    41   19   21 2    
    42   20   84 1    
    43   20   85 1    
    44   22   23 am   BACKBONE|DICT|INTERRES
    45   22   86 1    
    46   23   24 2    
    47   23   25 1    
    48   25   26 1    
    49   25   27 1    
    50   25   87 1    
    51   26   88 1    
    52   26   89 1    
    53   26   90 1    
    54   27   28 am   BACKBONE|DICT|INTERRES
    55   27   91 1    
    56   28   29 2    
    57   28   30 1    
    58   30   31 1    
    59   30   32 1    
    60   30   92 1    
    61   31   93 1    
    62   31   94 1    
    63   31   95 1    
    64   32   33 am   BACKBONE|DICT|INTERRES
    65   32   96 1    
    66   33   34 2    
    67   33   35 1    
    68   35   36 1    
    69   35   37 1    
    70   35   97 1    
    71   36   98 1    
    72   36   99 1    
    73   36  100 1    
    74   37   38 am   BACKBONE|DICT|INTERRES
    75   37  101 1    
    76   38   39 2    
    77   38   40 1    
    78   40   41 1    
    79   40   42 1    
    80   40  102 1    
    81   41  103 1    
    82   41  104 1    
    83   41  105 1    
    84   42   43 am   BACKBONE|DICT|INTERRES
    85   42  106 1    
    86   43   44 2    
    87   43   45 1    
    88   45   46 1    
    89   45   49 1    
    90   45  107 1    
    91   46   47 1    
    92   46  108 1    
    93   46  109 1    
    94   47   48 1    
    95   48  110 1    
    96   48  111 1    
    97   49   50 am   BACKBONE|DICT|INTERRES
    98   49  112 1    
    99   50   51 2    
   100   50   52 1    
   101   52   53 1    
   102   52   54 1    
   103   52  113 1    
   104   53  114 1    
   105   53  115 1    
   106   53  116 1    
   107   54   55 am   BACKBONE|DICT|INTERRES
   108   54  117 1    
   109   55   56 2    
   110   55   57 1    
   111   57   58 1    
   112   57   59 1    
   113   57  118 1    
   114   58  119 1    
   115   58  120 1    
   116   58  121 1    
   117   59   60 am   BACKBONE|DICT|INTERRES
   118   59  122 1    
   119   60   61 2    
   120   60   62 1    
   121   62   63 1    
   122   62   64 1    
   123   62  123 1    
   124   63  124 1    
   125   63  125 1    
   126   63  126 1    
   127   64   65 am   BACKBONE|DICT|INTERRES
   128   64  127 1    
   129   65   66 2    
@<TRIPOS>SUBSTRUCTURE
     1 UNK         1 GROUP             0       ****    0 ROOT    
