@<TRIPOS>MOLECULE
3R135
127   129    1
SMALL
USER_CHARGES


@<TRIPOS>ATOM
      1 CA        -83.1413   25.7835  -69.5477 C.3       0 UNK        -0.1998 
      2 C         -82.5652   26.1906  -70.8950 C.2       0 UNK         0.4909 
      3 O         -81.3715   26.0050  -71.1261 O.2       0 UNK        -0.5240 
      4 N         -83.4100   26.7277  -71.7868 N.am      1 UNK        -0.4739 
      5 CA        -83.1171   27.2450  -73.1385 C.3       1 UNK         0.0864 
      6 C6        -82.0421   28.3647  -73.1907 C.3       11 UNK        -0.0881 
      7 S7        -82.3307   29.6923  -71.9674 S.3       11 UNK        -0.2682 
      8 C8        -80.9379   30.8241  -72.3067 C.3       11 UNK         0.0289 
      9 C9        -79.5456   30.3623  -71.8629 C.ar      11 UNK        -0.0687 
     10 C10       -79.2901   29.1081  -71.2870 C.ar      11 UNK        -0.0823 
     11 C11       -77.9855   28.7246  -70.9669 C.ar      11 UNK        -0.0830 
     12 C12       -76.9396   29.6326  -71.1371 C.ar      11 UNK        -0.1021 
     13 C13       -77.1681   30.8768  -71.7262 C.ar      11 UNK        -0.0753 
     14 C14       -78.4721   31.2338  -72.0825 C.ar      11 UNK        -0.0933 
     15 C15       -76.0030   31.8141  -72.0164 C.3       11 UNK         0.0166 
     16 S16       -74.9796   31.2037  -73.4005 S.3       11 UNK        -0.2615 
     17 C17       -73.8801   30.0103  -72.5585 C.3       11 UNK        -0.0865 
     18 CA        -72.4215   30.0783  -73.0795 C.3       10 UNK         0.0862 
     19 C         -71.4247   29.3969  -72.0915 C.2       10 UNK         0.5551 
     20 N         -70.5646   28.4776  -72.5129 N.am      10 UNK        -0.7319 
     21 O         -71.4226   29.7216  -70.9066 O.2       10 UNK        -0.5018 
     22 N         -72.3297   29.5922  -74.4653 N.am      10 UNK        -0.4509 
     23 C         -71.3879   29.9630  -75.3408 C.2       10 UNK         0.4899 
     24 O         -70.5495   30.8380  -75.1161 O.2       10 UNK        -0.4839 
     25 CA        -71.3695   29.1984  -76.6791 C.3       9 UNK         0.0222 
     26 CB        -70.1134   29.4922  -77.5259 C.3       9 UNK        -0.1966 
     27 N         -71.5468   27.7505  -76.5076 N.am      9 UNK        -0.4218 
     28 C         -70.8008   26.9178  -75.7631 C.2       9 UNK         0.5020 
     29 O         -69.8149   27.2803  -75.1202 O.2       9 UNK        -0.5274 
     30 CA        -71.2319   25.4406  -75.6697 C.3       8 UNK         0.0270 
     31 CB        -71.6890   25.1132  -74.2376 C.3       8 UNK        -0.1976 
     32 N         -72.2986   25.0731  -76.6039 N.am      8 UNK        -0.4313 
     33 C         -72.1382   24.9003  -77.9230 C.2       8 UNK         0.5041 
     34 O         -71.0469   24.9395  -78.4920 O.2       8 UNK        -0.5577 
     35 CA        -73.4182   24.7020  -78.7541 C.3       7 UNK         0.0284 
     36 CB        -73.8418   23.2250  -78.7561 C.3       7 UNK        -0.1958 
     37 N         -74.5330   25.5369  -78.2925 N.am      7 UNK        -0.4454 
     38 C         -74.5342   26.8783  -78.2859 C.2       7 UNK         0.5089 
     39 O         -73.6063   27.5652  -78.7101 O.2       7 UNK        -0.5125 
     40 CA        -75.7443   27.5736  -77.6447 C.3       6 UNK         0.0408 
     41 CB        -76.9265   27.6419  -78.6241 C.3       6 UNK        -0.1791 
     42 N         -76.1591   26.9172  -76.4050 N.am      6 UNK        -0.4762 
     43 C         -75.4625   26.9374  -75.2581 C.2       6 UNK         0.5007 
     44 O         -74.4037   27.5498  -75.1045 O.2       6 UNK        -0.5032 
     45 CA        -76.0428   26.1065  -74.0953 C.3       5 UNK         0.0783 
     46 C46       -77.1129   26.9331  -73.3468 C.3       11 UNK        -0.0857 
     47 S47       -77.8303   26.0867  -71.8894 S.3       11 UNK        -0.2512 
     48 C48       -77.6799   27.2998  -70.5231 C.3       11 UNK         0.0225 
     49 N         -76.5573   24.8159  -74.5651 N.am      5 UNK        -0.4615 
     50 C         -75.7905   23.8377  -75.0686 C.2       4 UNK         0.5053 
     51 O         -74.5674   23.9161  -75.1724 O.2       4 UNK        -0.5105 
     52 CA        -76.5054   22.5783  -75.5882 C.3       4 UNK         0.0263 
     53 CB        -76.7362   21.5817  -74.4415 C.3       4 UNK        -0.1981 
     54 N         -77.7805   22.8653  -76.2482 N.am      4 UNK        -0.4224 
     55 C         -77.9392   23.6595  -77.3176 C.2       3 UNK         0.4895 
     56 O         -77.0051   24.1911  -77.9163 O.2       3 UNK        -0.5091 
     57 CA        -79.3806   23.9451  -77.7771 C.3       3 UNK         0.0250 
     58 CB        -79.7370   23.0750  -78.9925 C.3       3 UNK        -0.1996 
     59 N         -80.3885   23.7530  -76.7269 N.am      3 UNK        -0.4254 
     60 C         -80.4630   24.4722  -75.5980 C.2       2 UNK         0.5004 
     61 O         -79.6826   25.3844  -75.3130 O.2       2 UNK        -0.5226 
     62 CA        -81.5365   24.0326  -74.5909 C.3       2 UNK         0.0269 
     63 CB        -80.9780   22.9367  -73.6676 C.3       2 UNK        -0.1926 
     64 N         -81.9921   25.1472  -73.7646 N.am      2 UNK        -0.4687 
     65 C         -82.7952   26.1382  -74.1663 C.2       1 UNK         0.5165 
     66 O         -83.2974   26.1908  -75.2903 O.2       1 UNK        -0.5079 
     67 H67       -82.9842   24.7185  -69.3793 H         1 UNK         0.0900 
     68 H68       -82.6441   26.3322  -68.7484 H         1 UNK         0.0900 
     69 H69       -84.2105   25.9838  -69.4827 H         1 UNK         0.0900 
     70 H70       -84.3808   26.8156  -71.5200 H         1 UNK         0.2959 
     71 H71       -84.0547   27.6934  -73.4720 H         1 UNK         0.1079 
     72 H72       -81.0476   27.9410  -73.0486 H         1 UNK         0.0837 
     73 H73       -82.0284   28.8195  -74.1831 H         1 UNK         0.0837 
     74 H74       -81.1569   31.7709  -71.8109 H         1 UNK         0.0685 
     75 H75       -80.9169   31.0371  -73.3765 H         1 UNK         0.0685 
     76 H76       -80.0857   28.3972  -71.1204 H         1 UNK         0.1434 
     77 H77       -75.9352   29.3380  -70.8733 H         1 UNK         0.1329 
     78 H78       -78.6529   32.1938  -72.5471 H         1 UNK         0.1335 
     79 H79       -76.3753   32.8056  -72.2787 H         1 UNK         0.0680 
     80 H80       -75.3962   31.9499  -71.1202 H         1 UNK         0.0680 
     81 H81       -74.2839   29.0038  -72.6792 H         1 UNK         0.1032 
     82 H82       -73.9040   30.2219  -71.4886 H         1 UNK         0.1032 
     83 H83       -72.1327   31.1312  -73.0783 H         1 UNK         0.0461 
     84 H84       -69.9315   28.0648  -71.8472 H         1 UNK         0.3453 
     85 H85       -70.4955   28.2210  -73.4910 H         1 UNK         0.3453 
     86 H86       -72.9886   28.8642  -74.7282 H         1 UNK         0.2984 
     87 H87       -72.2367   29.5480  -77.2408 H         1 UNK         0.0554 
     88 H88       -70.0340   30.5560  -77.7528 H         1 UNK         0.0847 
     89 H89       -70.1449   28.9605  -78.4770 H         1 UNK         0.0847 
     90 H90       -69.1989   29.2004  -77.0084 H         1 UNK         0.0847 
     91 H91       -72.3417   27.3608  -76.9999 H         1 UNK         0.3141 
     92 H92       -70.3535   24.8324  -75.8950 H         1 UNK         0.0743 
     93 H93       -70.9023   25.3292  -73.5133 H         1 UNK         0.0784 
     94 H94       -72.5644   25.6975  -73.9516 H         1 UNK         0.0784 
     95 H95       -71.9419   24.0580  -74.1332 H         1 UNK         0.0784 
     96 H96       -73.2222   24.9322  -76.2026 H         1 UNK         0.3213 
     97 H97       -73.1938   24.9944  -79.7821 H         1 UNK         0.0855 
     98 H98       -74.0665   22.8693  -77.7507 H         1 UNK         0.0814 
     99 H99       -73.0476   22.5929  -79.1552 H         1 UNK         0.0814 
    100 H100      -74.7259   23.0653  -79.3737 H         1 UNK         0.0814 
    101 H101      -75.3735   25.0517  -77.9828 H         1 UNK         0.3105 
    102 H102      -75.4505   28.5969  -77.4003 H         1 UNK         0.0547 
    103 H103      -77.7697   28.1802  -78.1911 H         1 UNK         0.0837 
    104 H104      -77.2753   26.6512  -78.9158 H         1 UNK         0.0837 
    105 H105      -76.6429   28.1669  -79.5372 H         1 UNK         0.0837 
    106 H106      -77.0001   26.3582  -76.4436 H         1 UNK         0.3020 
    107 H107      -75.2217   25.9045  -73.4035 H         1 UNK         0.1245 
    108 H108      -77.9389   27.1911  -74.0129 H         1 UNK         0.0781 
    109 H109      -76.6668   27.8790  -73.0475 H         1 UNK         0.0781 
    110 H110      -76.6740   27.2340  -70.1059 H         1 UNK         0.0836 
    111 H111      -78.3619   27.0139  -69.7211 H         1 UNK         0.0836 
    112 H112      -77.5621   24.7001  -74.5369 H         1 UNK         0.3022 
    113 H113      -75.8529   22.1068  -76.3252 H         1 UNK         0.0747 
    114 H114      -77.1610   20.6465  -74.8068 H         1 UNK         0.0793 
    115 H115      -75.7965   21.3359  -73.9446 H         1 UNK         0.0793 
    116 H116      -77.4097   21.9847  -73.6837 H         1 UNK         0.0793 
    117 H117      -78.6069   22.4635  -75.8324 H         1 UNK         0.3047 
    118 H118      -79.4169   24.9928  -78.0832 H         1 UNK         0.0822 
    119 H119      -80.7197   23.3300  -79.3898 H         1 UNK         0.0807 
    120 H120      -79.7387   22.0129  -78.7440 H         1 UNK         0.0807 
    121 H121      -79.0170   23.2192  -79.7997 H         1 UNK         0.0807 
    122 H122      -81.0588   23.0124  -76.8790 H         1 UNK         0.2946 
    123 H123      -82.3951   23.6364  -75.1380 H         1 UNK         0.1144 
    124 H124      -80.1153   23.2904  -73.1004 H         1 UNK         0.0793 
    125 H125      -80.6606   22.0622  -74.2370 H         1 UNK         0.0793 
    126 H126      -81.7300   22.5997  -72.9539 H         1 UNK         0.0793 
    127 H127      -81.5865   25.2349  -72.8360 H         1 UNK         0.2896 
@<TRIPOS>BOND
     1    1    2 1    
     2    1   67 1    
     3    1   68 1    
     4    1   69 1    
     5    2    3 2    
     6    2    4 am   BACKBONE|DICT|INTERRES
     7    4    5 1    
     8    4   70 1    
     9    5    6 1    
    10    5   65 1    
    11    5   71 1    
    12    6    7 1    
    13    6   72 1    
    14    6   73 1    
    15    7    8 1    
    16    8    9 1    
    17    8   74 1    
    18    8   75 1    
    19    9   10 ar   
    20    9   14 ar   
    21   10   11 ar   
    22   10   76 1    
    23   11   12 ar   
    24   11   48 1    
    25   12   13 ar   
    26   12   77 1    
    27   13   14 ar   
    28   13   15 1    
    29   14   78 1    
    30   15   16 1    
    31   15   79 1    
    32   15   80 1    
    33   16   17 1    
    34   17   18 1    
    35   17   81 1    
    36   17   82 1    
    37   18   19 1    
    38   18   22 1    
    39   18   83 1    
    40   19   20 am   BACKBONE|DICT|INTERRES
    41   19   21 2    
    42   20   84 1    
    43   20   85 1    
    44   22   23 am   BACKBONE|DICT|INTERRES
    45   22   86 1    
    46   23   24 2    
    47   23   25 1    
    48   25   26 1    
    49   25   27 1    
    50   25   87 1    
    51   26   88 1    
    52   26   89 1    
    53   26   90 1    
    54   27   28 am   BACKBONE|DICT|INTERRES
    55   27   91 1    
    56   28   29 2    
    57   28   30 1    
    58   30   31 1    
    59   30   32 1    
    60   30   92 1    
    61   31   93 1    
    62   31   94 1    
    63   31   95 1    
    64   32   33 am   BACKBONE|DICT|INTERRES
    65   32   96 1    
    66   33   34 2    
    67   33   35 1    
    68   35   36 1    
    69   35   37 1    
    70   35   97 1    
    71   36   98 1    
    72   36   99 1    
    73   36  100 1    
    74   37   38 am   BACKBONE|DICT|INTERRES
    75   37  101 1    
    76   38   39 2    
    77   38   40 1    
    78   40   41 1    
    79   40   42 1    
    80   40  102 1    
    81   41  103 1    
    82   41  104 1    
    83   41  105 1    
    84   42   43 am   BACKBONE|DICT|INTERRES
    85   42  106 1    
    86   43   44 2    
    87   43   45 1    
    88   45   46 1    
    89   45   49 1    
    90   45  107 1    
    91   46   47 1    
    92   46  108 1    
    93   46  109 1    
    94   47   48 1    
    95   48  110 1    
    96   48  111 1    
    97   49   50 am   BACKBONE|DICT|INTERRES
    98   49  112 1    
    99   50   51 2    
   100   50   52 1    
   101   52   53 1    
   102   52   54 1    
   103   52  113 1    
   104   53  114 1    
   105   53  115 1    
   106   53  116 1    
   107   54   55 am   BACKBONE|DICT|INTERRES
   108   54  117 1    
   109   55   56 2    
   110   55   57 1    
   111   57   58 1    
   112   57   59 1    
   113   57  118 1    
   114   58  119 1    
   115   58  120 1    
   116   58  121 1    
   117   59   60 am   BACKBONE|DICT|INTERRES
   118   59  122 1    
   119   60   61 2    
   120   60   62 1    
   121   62   63 1    
   122   62   64 1    
   123   62  123 1    
   124   63  124 1    
   125   63  125 1    
   126   63  126 1    
   127   64   65 am   BACKBONE|DICT|INTERRES
   128   64  127 1    
   129   65   66 2    
@<TRIPOS>SUBSTRUCTURE
     1 UNK         1 GROUP             0       ****    0 ROOT    
