@<TRIPOS>MOLECULE
3R135
127   129    1
SMALL
USER_CHARGES


@<TRIPOS>ATOM
      1 CA        -77.1875   26.8258  -72.2032 C.3       0 UNK        -0.1998 
      2 C         -78.4148   26.2893  -71.4869 C.2       0 UNK         0.4909 
      3 O         -78.3687   25.1913  -70.9333 O.2       0 UNK        -0.5240 
      4 N         -79.5146   27.0533  -71.4969 N.am      1 UNK        -0.4739 
      5 CA        -80.7799   26.7169  -70.8239 C.3       1 UNK         0.0864 
      6 C6        -81.6566   27.9701  -70.5910 C.3       11 UNK        -0.0881 
      7 S7        -80.8231   29.1972  -69.5283 S.3       11 UNK        -0.2682 
      8 C8        -80.8087   30.6709  -70.5927 C.3       11 UNK         0.0289 
      9 C9        -79.7113   30.6242  -71.6476 C.ar      11 UNK        -0.0687 
     10 C10       -80.0089   30.2733  -72.9681 C.ar      11 UNK        -0.0823 
     11 C11       -79.0278   30.3415  -73.9627 C.ar      11 UNK        -0.0830 
     12 C12       -77.7380   30.7649  -73.6179 C.ar      11 UNK        -0.1021 
     13 C13       -77.4166   31.0956  -72.2961 C.ar      11 UNK        -0.0753 
     14 C14       -78.4106   31.0154  -71.3163 C.ar      11 UNK        -0.0933 
     15 C15       -76.0359   31.6348  -71.9224 C.3       11 UNK         0.0166 
     16 S16       -74.6524   30.8457  -72.8123 S.3       11 UNK        -0.2615 
     17 C17       -74.5726   29.2114  -72.0058 C.3       11 UNK        -0.0865 
     18 CA        -73.1829   28.9244  -71.3632 C.3       10 UNK         0.0862 
     19 C         -73.1815   27.6240  -70.5015 C.2       10 UNK         0.5551 
     20 N         -72.0985   26.8574  -70.4620 N.am      10 UNK        -0.7319 
     21 O         -74.1630   27.3227  -69.8272 O.2       10 UNK        -0.5018 
     22 N         -72.0685   29.0338  -72.3264 N.am      10 UNK        -0.4509 
     23 C         -71.9047   28.2887  -73.4266 C.2       10 UNK         0.4899 
     24 O         -72.6397   27.3531  -73.7499 O.2       10 UNK        -0.4839 
     25 CA        -70.6895   28.6321  -74.3038 C.3       9 UNK         0.0222 
     26 CB        -69.5196   27.6817  -74.0030 C.3       9 UNK        -0.1966 
     27 N         -71.0355   28.5339  -75.7207 N.am      9 UNK        -0.4218 
     28 C         -71.8415   29.3759  -76.3776 C.2       9 UNK         0.5020 
     29 O         -72.2502   30.4365  -75.9034 O.2       9 UNK        -0.5274 
     30 CA        -72.2899   28.9722  -77.7938 C.3       8 UNK         0.0270 
     31 CB        -71.3043   29.4818  -78.8640 C.3       8 UNK        -0.1976 
     32 N         -72.5858   27.5400  -77.9566 N.am      8 UNK        -0.4313 
     33 C         -71.7444   26.4930  -77.9479 C.2       8 UNK         0.5041 
     34 O         -70.5320   26.6035  -77.7595 O.2       8 UNK        -0.5577 
     35 CA        -72.3343   25.0796  -78.1324 C.3       7 UNK         0.0284 
     36 CB        -72.0502   24.2143  -76.8925 C.3       7 UNK        -0.1958 
     37 N         -73.7755   25.0796  -78.3993 N.am      7 UNK        -0.4454 
     38 C         -74.3295   25.3750  -79.5859 C.2       7 UNK         0.5089 
     39 O         -73.6726   25.5745  -80.6080 O.2       7 UNK        -0.5125 
     40 CA        -75.8656   25.5089  -79.6521 C.3       6 UNK         0.0408 
     41 CB        -76.4767   24.2826  -80.3470 C.3       6 UNK        -0.1791 
     42 N         -76.5174   25.7092  -78.3515 N.am      6 UNK        -0.4762 
     43 C         -76.3047   26.7563  -77.5346 C.2       6 UNK         0.5007 
     44 O         -75.5419   27.6797  -77.8226 O.2       6 UNK        -0.5032 
     45 CA        -76.9752   26.7323  -76.1360 C.3       5 UNK         0.0783 
     46 C46       -78.2945   27.5457  -76.0957 C.3       11 UNK        -0.0857 
     47 S47       -78.0895   29.3264  -76.4310 S.3       11 UNK        -0.2512 
     48 C48       -79.4149   30.0629  -75.4148 C.3       11 UNK         0.0225 
     49 N         -77.2088   25.3686  -75.6428 N.am      5 UNK        -0.4615 
     50 C         -76.2748   24.4153  -75.4951 C.2       4 UNK         0.5053 
     51 O         -75.0744   24.6122  -75.6744 O.2       4 UNK        -0.5105 
     52 CA        -76.7515   22.9893  -75.1527 C.3       4 UNK         0.0263 
     53 CB        -76.5718   22.7195  -73.6503 C.3       4 UNK        -0.1981 
     54 N         -78.1430   22.7107  -75.5244 N.am      4 UNK        -0.4224 
     55 C         -78.6801   22.8405  -76.7479 C.2       3 UNK         0.4895 
     56 O         -78.0246   23.1058  -77.7549 O.2       3 UNK        -0.5091 
     57 CA        -80.2146   22.7312  -76.8616 C.3       3 UNK         0.0250 
     58 CB        -80.6115   21.3556  -77.4208 C.3       3 UNK        -0.1996 
     59 N         -80.9485   22.9748  -75.6102 N.am      3 UNK        -0.4254 
     60 C         -80.8582   24.0736  -74.8453 C.2       2 UNK         0.5004 
     61 O         -80.1340   25.0364  -75.1207 O.2       2 UNK        -0.5226 
     62 CA        -81.6469   24.0688  -73.5255 C.3       2 UNK         0.0269 
     63 CB        -81.5003   22.7223  -72.7756 C.3       2 UNK        -0.1926 
     64 N         -81.1341   25.1687  -72.7126 N.am      2 UNK        -0.4687 
     65 C         -81.5849   25.6004  -71.5302 C.2       1 UNK         0.5165 
     66 O         -82.5943   25.1504  -70.9854 O.2       1 UNK        -0.5079 
     67 H67       -76.8721   26.1327  -72.9805 H         1 UNK         0.0900 
     68 H68       -76.3691   26.9265  -71.4922 H         1 UNK         0.0900 
     69 H69       -77.3708   27.7982  -72.6609 H         1 UNK         0.0900 
     70 H70       -79.4860   27.9627  -71.9370 H         1 UNK         0.2959 
     71 H71       -80.5262   26.3102  -69.8420 H         1 UNK         0.1079 
     72 H72       -81.9433   28.4200  -71.5425 H         1 UNK         0.0837 
     73 H73       -82.5904   27.7002  -70.0934 H         1 UNK         0.0837 
     74 H74       -81.7881   30.8014  -71.0557 H         1 UNK         0.0685 
     75 H75       -80.6606   31.5487  -69.9618 H         1 UNK         0.0685 
     76 H76       -81.0202   29.9947  -73.2319 H         1 UNK         0.1434 
     77 H77       -76.9860   30.8688  -74.3872 H         1 UNK         0.1329 
     78 H78       -78.1856   31.3014  -70.2977 H         1 UNK         0.1335 
     79 H79       -76.0191   32.7025  -72.1442 H         1 UNK         0.0680 
     80 H80       -75.8613   31.5422  -70.8492 H         1 UNK         0.0680 
     81 H81       -74.8168   28.4522  -72.7495 H         1 UNK         0.1032 
     82 H82       -75.3594   29.1571  -71.2516 H         1 UNK         0.1032 
     83 H83       -73.0034   29.7192  -70.6383 H         1 UNK         0.0461 
     84 H84       -71.2850   27.0975  -71.0045 H         1 UNK         0.3453 
     85 H85       -72.1017   26.0262  -69.8923 H         1 UNK         0.3453 
     86 H86       -71.4012   29.7669  -72.1333 H         1 UNK         0.2984 
     87 H87       -70.3717   29.6563  -74.0972 H         1 UNK         0.0554 
     88 H88       -69.7850   26.6415  -74.1978 H         1 UNK         0.0847 
     89 H89       -69.2168   27.7516  -72.9575 H         1 UNK         0.0847 
     90 H90       -68.6461   27.9231  -74.6091 H         1 UNK         0.0847 
     91 H91       -70.7423   27.6978  -76.2197 H         1 UNK         0.3141 
     92 H92       -73.2421   29.4768  -77.9665 H         1 UNK         0.0743 
     93 H93       -70.3105   29.0492  -78.7461 H         1 UNK         0.0784 
     94 H94       -71.6555   29.2484  -79.8691 H         1 UNK         0.0784 
     95 H95       -71.1930   30.5651  -78.8023 H         1 UNK         0.0784 
     96 H96       -73.5783   27.3391  -78.0420 H         1 UNK         0.3213 
     97 H97       -71.8242   24.6257  -78.9848 H         1 UNK         0.0855 
     98 H98       -72.4468   24.6696  -75.9840 H         1 UNK         0.0814 
     99 H99       -70.9772   24.0848  -76.7452 H         1 UNK         0.0814 
    100 H100      -72.4856   23.2197  -76.9892 H         1 UNK         0.0814 
    101 H101      -74.3797   24.9330  -77.5963 H         1 UNK         0.3105 
    102 H102      -76.0854   26.3873  -80.2621 H         1 UNK         0.0547 
    103 H103      -76.0700   24.1595  -81.3516 H         1 UNK         0.0837 
    104 H104      -76.2680   23.3637  -79.7977 H         1 UNK         0.0837 
    105 H105      -77.5583   24.3764  -80.4453 H         1 UNK         0.0837 
    106 H106      -77.1206   24.9561  -78.0345 H         1 UNK         0.3020 
    107 H107      -76.2673   27.1983  -75.4467 H         1 UNK         0.1245 
    108 H108      -78.7494   27.4429  -75.1089 H         1 UNK         0.0781 
    109 H109      -79.0193   27.1390  -76.8037 H         1 UNK         0.0781 
    110 H110      -80.2968   29.4220  -75.4645 H         1 UNK         0.0836 
    111 H111      -79.7028   31.0110  -75.8707 H         1 UNK         0.0836 
    112 H112      -78.1813   25.1229  -75.4811 H         1 UNK         0.3022 
    113 H113      -76.1188   22.2950  -75.7092 H         1 UNK         0.0747 
    114 H114      -76.8057   21.6843  -73.4009 H         1 UNK         0.0793 
    115 H115      -75.5408   22.8994  -73.3416 H         1 UNK         0.0793 
    116 H116      -77.2099   23.3646  -73.0442 H         1 UNK         0.0793 
    117 H117      -78.7693   22.4857  -74.7662 H         1 UNK         0.3047 
    118 H118      -80.5321   23.4953  -77.5742 H         1 UNK         0.0822 
    119 H119      -81.6827   21.2987  -77.6150 H         1 UNK         0.0807 
    120 H120      -80.3496   20.5495  -76.7342 H         1 UNK         0.0807 
    121 H121      -80.1035   21.1565  -78.3657 H         1 UNK         0.0807 
    122 H122      -81.5604   22.2316  -75.3048 H         1 UNK         0.2946 
    123 H123      -82.6978   24.2575  -73.7539 H         1 UNK         0.1144 
    124 H124      -81.9099   21.8912  -73.3501 H         1 UNK         0.0793 
    125 H125      -82.0357   22.7255  -71.8268 H         1 UNK         0.0793 
    126 H126      -80.4552   22.4944  -72.5614 H         1 UNK         0.0793 
    127 H127      -80.3318   25.6305  -73.1237 H         1 UNK         0.2896 
@<TRIPOS>BOND
     1    1    2 1    
     2    1   67 1    
     3    1   68 1    
     4    1   69 1    
     5    2    3 2    
     6    2    4 am   BACKBONE|DICT|INTERRES
     7    4    5 1    
     8    4   70 1    
     9    5    6 1    
    10    5   65 1    
    11    5   71 1    
    12    6    7 1    
    13    6   72 1    
    14    6   73 1    
    15    7    8 1    
    16    8    9 1    
    17    8   74 1    
    18    8   75 1    
    19    9   10 ar   
    20    9   14 ar   
    21   10   11 ar   
    22   10   76 1    
    23   11   12 ar   
    24   11   48 1    
    25   12   13 ar   
    26   12   77 1    
    27   13   14 ar   
    28   13   15 1    
    29   14   78 1    
    30   15   16 1    
    31   15   79 1    
    32   15   80 1    
    33   16   17 1    
    34   17   18 1    
    35   17   81 1    
    36   17   82 1    
    37   18   19 1    
    38   18   22 1    
    39   18   83 1    
    40   19   20 am   BACKBONE|DICT|INTERRES
    41   19   21 2    
    42   20   84 1    
    43   20   85 1    
    44   22   23 am   BACKBONE|DICT|INTERRES
    45   22   86 1    
    46   23   24 2    
    47   23   25 1    
    48   25   26 1    
    49   25   27 1    
    50   25   87 1    
    51   26   88 1    
    52   26   89 1    
    53   26   90 1    
    54   27   28 am   BACKBONE|DICT|INTERRES
    55   27   91 1    
    56   28   29 2    
    57   28   30 1    
    58   30   31 1    
    59   30   32 1    
    60   30   92 1    
    61   31   93 1    
    62   31   94 1    
    63   31   95 1    
    64   32   33 am   BACKBONE|DICT|INTERRES
    65   32   96 1    
    66   33   34 2    
    67   33   35 1    
    68   35   36 1    
    69   35   37 1    
    70   35   97 1    
    71   36   98 1    
    72   36   99 1    
    73   36  100 1    
    74   37   38 am   BACKBONE|DICT|INTERRES
    75   37  101 1    
    76   38   39 2    
    77   38   40 1    
    78   40   41 1    
    79   40   42 1    
    80   40  102 1    
    81   41  103 1    
    82   41  104 1    
    83   41  105 1    
    84   42   43 am   BACKBONE|DICT|INTERRES
    85   42  106 1    
    86   43   44 2    
    87   43   45 1    
    88   45   46 1    
    89   45   49 1    
    90   45  107 1    
    91   46   47 1    
    92   46  108 1    
    93   46  109 1    
    94   47   48 1    
    95   48  110 1    
    96   48  111 1    
    97   49   50 am   BACKBONE|DICT|INTERRES
    98   49  112 1    
    99   50   51 2    
   100   50   52 1    
   101   52   53 1    
   102   52   54 1    
   103   52  113 1    
   104   53  114 1    
   105   53  115 1    
   106   53  116 1    
   107   54   55 am   BACKBONE|DICT|INTERRES
   108   54  117 1    
   109   55   56 2    
   110   55   57 1    
   111   57   58 1    
   112   57   59 1    
   113   57  118 1    
   114   58  119 1    
   115   58  120 1    
   116   58  121 1    
   117   59   60 am   BACKBONE|DICT|INTERRES
   118   59  122 1    
   119   60   61 2    
   120   60   62 1    
   121   62   63 1    
   122   62   64 1    
   123   62  123 1    
   124   63  124 1    
   125   63  125 1    
   126   63  126 1    
   127   64   65 am   BACKBONE|DICT|INTERRES
   128   64  127 1    
   129   65   66 2    
@<TRIPOS>SUBSTRUCTURE
     1 UNK         1 GROUP             0       ****    0 ROOT    
