@<TRIPOS>MOLECULE
3R135
127   129    1
SMALL
USER_CHARGES


@<TRIPOS>ATOM
      1 CA        -83.5368   25.6016  -74.0110 C.3       0 UNK        -0.1998 
      2 C         -83.0153   26.8812  -74.6459 C.2       0 UNK         0.4909 
      3 O         -83.7603   27.5669  -75.3469 O.2       0 UNK        -0.5240 
      4 N         -81.7348   27.2023  -74.4249 N.am      1 UNK        -0.4739 
      5 CA        -81.0481   28.4087  -74.9114 C.3       1 UNK         0.0864 
      6 C6        -79.8223   28.7591  -74.0253 C.3       11 UNK        -0.0881 
      7 S7        -80.2849   28.9959  -72.2793 S.3       11 UNK        -0.2682 
      8 C8        -78.7475   29.6851  -71.5925 C.3       11 UNK         0.0289 
      9 C9        -77.6730   28.6333  -71.3387 C.ar      11 UNK        -0.0687 
     10 C10       -77.9193   27.5611  -70.4746 C.ar      11 UNK        -0.0823 
     11 C11       -76.9008   26.6611  -70.1443 C.ar      11 UNK        -0.0830 
     12 C12       -75.6223   26.8431  -70.6843 C.ar      11 UNK        -0.1021 
     13 C13       -75.3627   27.9077  -71.5532 C.ar      11 UNK        -0.0753 
     14 C14       -76.3985   28.7856  -71.8921 C.ar      11 UNK        -0.0933 
     15 C15       -73.9587   28.1374  -72.0995 C.3       11 UNK         0.0166 
     16 S16       -73.2912   29.7426  -71.5444 S.3       11 UNK        -0.2615 
     17 C17       -71.8743   30.0005  -72.6681 C.3       11 UNK        -0.0865 
     18 CA        -72.2528   30.8217  -73.9312 C.3       10 UNK         0.0862 
     19 C         -70.9855   31.3716  -74.6396 C.2       10 UNK         0.5551 
     20 N         -70.5016   30.7624  -75.7131 N.am      10 UNK        -0.7319 
     21 O         -70.4386   32.3853  -74.2118 O.2       10 UNK        -0.5018 
     22 N         -73.1280   30.0394  -74.8192 N.am      10 UNK        -0.4509 
     23 C         -74.4168   30.3127  -75.0609 C.2       10 UNK         0.4899 
     24 O         -74.9776   31.3452  -74.6904 O.2       10 UNK        -0.4839 
     25 CA        -75.2547   29.2226  -75.7588 C.3       9 UNK         0.0222 
     26 CB        -76.4076   29.8049  -76.6049 C.3       9 UNK        -0.1966 
     27 N         -74.4664   28.2349  -76.5081 N.am      9 UNK        -0.4218 
     28 C         -73.8145   28.4291  -77.6636 C.2       9 UNK         0.5020 
     29 O         -73.8119   29.4948  -78.2828 O.2       9 UNK        -0.5274 
     30 CA        -73.0174   27.2211  -78.2065 C.3       8 UNK         0.0270 
     31 CB        -72.0298   27.6238  -79.3227 C.3       8 UNK        -0.1976 
     32 N         -72.3087   26.4417  -77.1774 N.am      8 UNK        -0.4313 
     33 C         -71.4711   26.9187  -76.2447 C.2       8 UNK         0.5041 
     34 O         -71.2859   28.1205  -76.0499 O.2       8 UNK        -0.5577 
     35 CA        -70.7141   25.8843  -75.3885 C.3       7 UNK         0.0284 
     36 CB        -70.0907   26.5089  -74.1213 C.3       7 UNK        -0.1958 
     37 N         -71.4881   24.6907  -75.0212 N.am      7 UNK        -0.4454 
     38 C         -72.6504   24.6588  -74.3548 C.2       7 UNK         0.5089 
     39 O         -73.3581   25.6479  -74.1399 O.2       7 UNK        -0.5125 
     40 CA        -73.0665   23.2874  -73.8018 C.3       6 UNK         0.0408 
     41 CB        -72.0605   22.8081  -72.7318 C.3       6 UNK        -0.1791 
     42 N         -74.3979   23.4247  -73.2237 N.am      6 UNK        -0.4762 
     43 C         -75.1843   22.4581  -72.7351 C.2       6 UNK         0.5007 
     44 O         -74.8883   21.2626  -72.7222 O.2       6 UNK        -0.5032 
     45 CA        -76.5393   22.9199  -72.1611 C.3       5 UNK         0.0783 
     46 C46       -76.3689   23.3008  -70.6682 C.3       11 UNK        -0.0857 
     47 S47       -77.8595   24.0471  -69.9235 S.3       11 UNK        -0.2512 
     48 C48       -77.1708   25.5436  -69.1434 C.3       11 UNK         0.0225 
     49 N         -77.1345   23.9992  -72.9585 N.am      5 UNK        -0.4615 
     50 C         -77.5447   23.8684  -74.2260 C.2       4 UNK         0.5053 
     51 O         -77.4537   22.8246  -74.8769 O.2       4 UNK        -0.5105 
     52 CA        -78.1111   25.1382  -74.8784 C.3       4 UNK         0.0263 
     53 CB        -76.9622   26.0661  -75.3027 C.3       4 UNK        -0.1981 
     54 N         -78.9463   24.8464  -76.0463 N.am      4 UNK        -0.4224 
     55 C         -80.1390   24.2392  -75.9995 C.2       3 UNK         0.4895 
     56 O         -80.7077   23.9239  -74.9527 O.2       3 UNK        -0.5091 
     57 CA        -80.8460   24.0400  -77.3480 C.3       3 UNK         0.0250 
     58 CB        -81.9777   22.9977  -77.2759 C.3       3 UNK        -0.1996 
     59 N         -81.4093   25.3319  -77.7194 N.am      3 UNK        -0.4254 
     60 C         -80.9549   26.1388  -78.6862 C.2       2 UNK         0.5004 
     61 O         -80.1254   25.8083  -79.5336 O.2       2 UNK        -0.5226 
     62 CA        -81.4784   27.5869  -78.6467 C.3       2 UNK         0.0269 
     63 CB        -82.8024   27.7129  -79.4169 C.3       2 UNK        -0.1926 
     64 N         -81.6657   28.0494  -77.2657 N.am      2 UNK        -0.4687 
     65 C         -80.6629   28.2536  -76.3991 C.2       1 UNK         0.5165 
     66 O         -79.4790   28.2552  -76.7353 O.2       1 UNK        -0.5079 
     67 H67       -83.8683   24.9072  -74.7823 H         1 UNK         0.0900 
     68 H68       -84.3838   25.8225  -73.3623 H         1 UNK         0.0900 
     69 H69       -82.7727   25.1035  -73.4141 H         1 UNK         0.0900 
     70 H70       -81.1702   26.5885  -73.8550 H         1 UNK         0.2959 
     71 H71       -81.7448   29.2483  -74.8556 H         1 UNK         0.1079 
     72 H72       -79.3485   29.6752  -74.3835 H         1 UNK         0.0837 
     73 H73       -79.0602   27.9808  -74.0775 H         1 UNK         0.0837 
     74 H74       -78.3799   30.4739  -72.2508 H         1 UNK         0.0685 
     75 H75       -78.9824   30.1690  -70.6437 H         1 UNK         0.0685 
     76 H76       -78.9003   27.4469  -70.0332 H         1 UNK         0.1434 
     77 H77       -74.8193   26.1748  -70.4064 H         1 UNK         0.1329 
     78 H78       -76.1919   29.6231  -72.5447 H         1 UNK         0.1335 
     79 H79       -73.9950   28.0931  -73.1860 H         1 UNK         0.0680 
     80 H80       -73.2798   27.3431  -71.7854 H         1 UNK         0.0680 
     81 H81       -71.4394   29.0405  -72.9462 H         1 UNK         0.1032 
     82 H82       -71.1068   30.5202  -72.0908 H         1 UNK         0.1032 
     83 H83       -72.7862   31.7106  -73.5886 H         1 UNK         0.0461 
     84 H84       -70.8717   29.8572  -75.9992 H         1 UNK         0.3453 
     85 H85       -69.6858   31.1372  -76.1689 H         1 UNK         0.3453 
     86 H86       -72.7041   29.2141  -75.2319 H         1 UNK         0.2984 
     87 H87       -75.7153   28.6619  -74.9459 H         1 UNK         0.0554 
     88 H88       -77.1322   30.3209  -75.9740 H         1 UNK         0.0847 
     89 H89       -76.9458   29.0232  -77.1397 H         1 UNK         0.0847 
     90 H90       -76.0487   30.5258  -77.3397 H         1 UNK         0.0847 
     91 H91       -74.3520   27.3355  -76.0588 H         1 UNK         0.3141 
     92 H92       -73.7562   26.5497  -78.6466 H         1 UNK         0.0743 
     93 H93       -72.5483   28.1010  -80.1553 H         1 UNK         0.0784 
     94 H94       -71.2792   28.3268  -78.9590 H         1 UNK         0.0784 
     95 H95       -71.5084   26.7552  -79.7249 H         1 UNK         0.0784 
     96 H96       -72.4223   25.4386  -77.2280 H         1 UNK         0.3213 
     97 H97       -69.8923   25.5365  -76.0163 H         1 UNK         0.0855 
     98 H98       -69.4588   27.3640  -74.3656 H         1 UNK         0.0814 
     99 H99       -70.8570   26.8526  -73.4271 H         1 UNK         0.0814 
    100 H100      -69.4645   25.7895  -73.5940 H         1 UNK         0.0814 
    101 H101      -71.0195   23.8100  -75.1853 H         1 UNK         0.3105 
    102 H102      -73.1094   22.5738  -74.6265 H         1 UNK         0.0547 
    103 H103      -71.0527   22.7207  -73.1387 H         1 UNK         0.0837 
    104 H104      -72.0118   23.5006  -71.8905 H         1 UNK         0.0837 
    105 H105      -72.3218   21.8260  -72.3389 H         1 UNK         0.0837 
    106 H106      -74.7309   24.3823  -73.2270 H         1 UNK         0.3020 
    107 H107      -77.2198   22.0669  -72.2170 H         1 UNK         0.1245 
    108 H108      -75.5266   23.9812  -70.5410 H         1 UNK         0.0781 
    109 H109      -76.1173   22.4127  -70.0852 H         1 UNK         0.0781 
    110 H110      -76.2613   25.2891  -68.5967 H         1 UNK         0.0836 
    111 H111      -77.8777   25.8958  -68.3905 H         1 UNK         0.0836 
    112 H112      -77.2541   24.8825  -72.4829 H         1 UNK         0.3022 
    113 H113      -78.7301   25.6520  -74.1407 H         1 UNK         0.0747 
    114 H114      -77.3419   26.9820  -75.7533 H         1 UNK         0.0793 
    115 H115      -76.3531   26.3554  -74.4449 H         1 UNK         0.0793 
    116 H116      -76.3011   25.5857  -76.0252 H         1 UNK         0.0793 
    117 H117      -78.5624   25.0903  -76.9478 H         1 UNK         0.3047 
    118 H118      -80.1092   23.7022  -78.0803 H         1 UNK         0.0822 
    119 H119      -82.4478   22.8596  -78.2497 H         1 UNK         0.0807 
    120 H120      -82.7561   23.2860  -76.5685 H         1 UNK         0.0807 
    121 H121      -81.5923   22.0273  -76.9604 H         1 UNK         0.0807 
    122 H122      -82.0707   25.7232  -77.0650 H         1 UNK         0.2946 
    123 H123      -80.7322   28.2237  -79.1277 H         1 UNK         0.1144 
    124 H124      -83.1469   28.7468  -79.4445 H         1 UNK         0.0793 
    125 H125      -83.5919   27.1081  -78.9689 H         1 UNK         0.0793 
    126 H126      -82.6845   27.3836  -80.4503 H         1 UNK         0.0793 
    127 H127      -82.6099   28.0384  -76.8905 H         1 UNK         0.2896 
@<TRIPOS>BOND
     1    1    2 1    
     2    1   67 1    
     3    1   68 1    
     4    1   69 1    
     5    2    3 2    
     6    2    4 am   BACKBONE|DICT|INTERRES
     7    4    5 1    
     8    4   70 1    
     9    5    6 1    
    10    5   65 1    
    11    5   71 1    
    12    6    7 1    
    13    6   72 1    
    14    6   73 1    
    15    7    8 1    
    16    8    9 1    
    17    8   74 1    
    18    8   75 1    
    19    9   10 ar   
    20    9   14 ar   
    21   10   11 ar   
    22   10   76 1    
    23   11   12 ar   
    24   11   48 1    
    25   12   13 ar   
    26   12   77 1    
    27   13   14 ar   
    28   13   15 1    
    29   14   78 1    
    30   15   16 1    
    31   15   79 1    
    32   15   80 1    
    33   16   17 1    
    34   17   18 1    
    35   17   81 1    
    36   17   82 1    
    37   18   19 1    
    38   18   22 1    
    39   18   83 1    
    40   19   20 am   BACKBONE|DICT|INTERRES
    41   19   21 2    
    42   20   84 1    
    43   20   85 1    
    44   22   23 am   BACKBONE|DICT|INTERRES
    45   22   86 1    
    46   23   24 2    
    47   23   25 1    
    48   25   26 1    
    49   25   27 1    
    50   25   87 1    
    51   26   88 1    
    52   26   89 1    
    53   26   90 1    
    54   27   28 am   BACKBONE|DICT|INTERRES
    55   27   91 1    
    56   28   29 2    
    57   28   30 1    
    58   30   31 1    
    59   30   32 1    
    60   30   92 1    
    61   31   93 1    
    62   31   94 1    
    63   31   95 1    
    64   32   33 am   BACKBONE|DICT|INTERRES
    65   32   96 1    
    66   33   34 2    
    67   33   35 1    
    68   35   36 1    
    69   35   37 1    
    70   35   97 1    
    71   36   98 1    
    72   36   99 1    
    73   36  100 1    
    74   37   38 am   BACKBONE|DICT|INTERRES
    75   37  101 1    
    76   38   39 2    
    77   38   40 1    
    78   40   41 1    
    79   40   42 1    
    80   40  102 1    
    81   41  103 1    
    82   41  104 1    
    83   41  105 1    
    84   42   43 am   BACKBONE|DICT|INTERRES
    85   42  106 1    
    86   43   44 2    
    87   43   45 1    
    88   45   46 1    
    89   45   49 1    
    90   45  107 1    
    91   46   47 1    
    92   46  108 1    
    93   46  109 1    
    94   47   48 1    
    95   48  110 1    
    96   48  111 1    
    97   49   50 am   BACKBONE|DICT|INTERRES
    98   49  112 1    
    99   50   51 2    
   100   50   52 1    
   101   52   53 1    
   102   52   54 1    
   103   52  113 1    
   104   53  114 1    
   105   53  115 1    
   106   53  116 1    
   107   54   55 am   BACKBONE|DICT|INTERRES
   108   54  117 1    
   109   55   56 2    
   110   55   57 1    
   111   57   58 1    
   112   57   59 1    
   113   57  118 1    
   114   58  119 1    
   115   58  120 1    
   116   58  121 1    
   117   59   60 am   BACKBONE|DICT|INTERRES
   118   59  122 1    
   119   60   61 2    
   120   60   62 1    
   121   62   63 1    
   122   62   64 1    
   123   62  123 1    
   124   63  124 1    
   125   63  125 1    
   126   63  126 1    
   127   64   65 am   BACKBONE|DICT|INTERRES
   128   64  127 1    
   129   65   66 2    
@<TRIPOS>SUBSTRUCTURE
     1 UNK         1 GROUP             0       ****    0 ROOT    
