@<TRIPOS>MOLECULE
3R135
127   129    1
SMALL
USER_CHARGES


@<TRIPOS>ATOM
      1 CA        -84.1075   24.0646  -70.3888 C.3       0 UNK        -0.1998 
      2 C         -82.8680   24.3249  -71.2316 C.2       0 UNK         0.4909 
      3 O         -82.1901   23.3759  -71.6244 O.2       0 UNK        -0.5240 
      4 N         -82.5802   25.6037  -71.5162 N.am      1 UNK        -0.4739 
      5 CA        -81.4256   26.0973  -72.2880 C.3       1 UNK         0.0864 
      6 C6        -80.0532   25.7765  -71.6243 C.3       11 UNK        -0.0881 
      7 S7        -79.8651   26.6409  -70.0243 S.3       11 UNK        -0.2682 
      8 C8        -78.0827   27.0623  -70.0063 C.3       11 UNK         0.0289 
      9 C9        -77.6036   28.1035  -71.0245 C.ar      11 UNK        -0.0687 
     10 C10       -78.4573   28.7255  -71.9436 C.ar      11 UNK        -0.0823 
     11 C11       -77.9584   29.6038  -72.9079 C.ar      11 UNK        -0.0830 
     12 C12       -76.5953   29.9084  -72.9243 C.ar      11 UNK        -0.1021 
     13 C13       -75.7327   29.3308  -71.9882 C.ar      11 UNK        -0.0753 
     14 C14       -76.2424   28.4266  -71.0499 C.ar      11 UNK        -0.0933 
     15 C15       -74.2427   29.6387  -72.0229 C.3       11 UNK         0.0166 
     16 S16       -73.8890   31.4026  -71.7624 S.3       11 UNK        -0.2615 
     17 C17       -72.0703   31.3776  -71.5992 C.3       11 UNK        -0.0865 
     18 CA        -71.3361   31.5793  -72.9516 C.3       10 UNK         0.0862 
     19 C         -69.8432   31.9624  -72.7298 C.2       10 UNK         0.5551 
     20 N         -68.8757   31.1725  -73.1812 N.am      10 UNK        -0.7319 
     21 O         -69.5582   33.0046  -72.1450 O.2       10 UNK        -0.5018 
     22 N         -71.5155   30.4200  -73.8415 N.am      10 UNK        -0.4509 
     23 C         -71.5526   30.4708  -75.1762 C.2       10 UNK         0.4899 
     24 O         -71.5248   31.5230  -75.8154 O.2       10 UNK        -0.4839 
     25 CA        -71.6293   29.1405  -75.9530 C.3       9 UNK         0.0222 
     26 CB        -70.2527   28.7709  -76.5389 C.3       9 UNK        -0.1966 
     27 N         -72.2176   27.9904  -75.2472 N.am      9 UNK        -0.4218 
     28 C         -71.7623   27.3253  -74.1741 C.2       9 UNK         0.5020 
     29 O         -70.8007   27.6933  -73.4987 O.2       9 UNK        -0.5274 
     30 CA        -72.4991   26.0324  -73.7803 C.3       8 UNK         0.0270 
     31 CB        -73.6390   26.3148  -72.7912 C.3       8 UNK        -0.1976 
     32 N         -73.0343   25.3016  -74.9292 N.am      8 UNK        -0.4313 
     33 C         -72.2938   24.6194  -75.8135 C.2       8 UNK         0.5041 
     34 O         -71.0678   24.5180  -75.7532 O.2       8 UNK        -0.5577 
     35 CA        -73.0526   23.9362  -76.9613 C.3       7 UNK         0.0284 
     36 CB        -73.7184   22.6345  -76.4842 C.3       7 UNK        -0.1958 
     37 N         -74.0607   24.8227  -77.5430 N.am      7 UNK        -0.4454 
     38 C         -73.7864   25.8284  -78.3845 C.2       7 UNK         0.5089 
     39 O         -72.6593   26.0806  -78.8106 O.2       7 UNK        -0.5125 
     40 CA        -74.9693   26.7070  -78.8247 C.3       6 UNK         0.0408 
     41 CB        -75.5905   26.1631  -80.1206 C.3       6 UNK        -0.1791 
     42 N         -76.0087   26.8256  -77.7994 N.am      6 UNK        -0.4762 
     43 C         -75.8736   27.5299  -76.6647 C.2       6 UNK         0.5007 
     44 O         -74.8494   28.1376  -76.3565 O.2       6 UNK        -0.5032 
     45 CA        -77.0770   27.5343  -75.6991 C.3       5 UNK         0.0783 
     46 C46       -78.0688   28.6347  -76.1642 C.3       11 UNK        -0.0857 
     47 S47       -79.5065   28.8949  -75.0779 S.3       11 UNK        -0.2512 
     48 C48       -78.9015   30.1887  -73.9463 C.3       11 UNK         0.0225 
     49 N         -77.6896   26.2038  -75.5534 N.am      5 UNK        -0.4615 
     50 C         -77.0230   25.0781  -75.2456 C.2       4 UNK         0.5053 
     51 O         -75.8266   25.0553  -74.9584 O.2       4 UNK        -0.5105 
     52 CA        -77.7676   23.7348  -75.3368 C.3       4 UNK         0.0263 
     53 CB        -78.1774   23.2353  -73.9438 C.3       4 UNK        -0.1981 
     54 N         -78.9343   23.7454  -76.2208 N.am      4 UNK        -0.4224 
     55 C         -78.9270   23.9947  -77.5367 C.2       3 UNK         0.4895 
     56 O         -77.9035   24.2512  -78.1726 O.2       3 UNK        -0.5091 
     57 CA        -80.2840   24.0002  -78.2692 C.3       3 UNK         0.0250 
     58 CB        -80.6361   22.5962  -78.7984 C.3       3 UNK        -0.1996 
     59 N         -81.3912   24.5922  -77.4983 N.am      3 UNK        -0.4254 
     60 C         -81.9772   24.1363  -76.3808 C.2       2 UNK         0.5004 
     61 O         -81.7163   23.0542  -75.8507 O.2       2 UNK        -0.5226 
     62 CA        -82.9834   25.0855  -75.7053 C.3       2 UNK         0.0269 
     63 CB        -84.4098   24.5205  -75.8053 C.3       2 UNK        -0.1926 
     64 N         -82.6717   25.3591  -74.2954 N.am      2 UNK        -0.4687 
     65 C         -81.4824   25.7331  -73.7922 C.2       1 UNK         0.5165 
     66 O         -80.4676   25.8502  -74.4785 O.2       1 UNK        -0.5079 
     67 H67       -84.6176   24.9881  -70.1153 H         1 UNK         0.0900 
     68 H68       -83.8333   23.5451  -69.4711 H         1 UNK         0.0900 
     69 H69       -84.8103   23.4385  -70.9379 H         1 UNK         0.0900 
     70 H70       -83.1874   26.3279  -71.1570 H         1 UNK         0.2959 
     71 H71       -81.5288   27.1834  -72.2913 H         1 UNK         0.1079 
     72 H72       -79.2261   26.0678  -72.2737 H         1 UNK         0.0837 
     73 H73       -79.9345   24.7052  -71.4604 H         1 UNK         0.0837 
     74 H74       -77.8376   27.4238  -69.0068 H         1 UNK         0.0685 
     75 H75       -77.5131   26.1424  -70.1481 H         1 UNK         0.0685 
     76 H76       -79.5144   28.5093  -71.9494 H         1 UNK         0.1434 
     77 H77       -76.1996   30.5856  -73.6692 H         1 UNK         0.1329 
     78 H78       -75.5727   27.9565  -70.3426 H         1 UNK         0.1335 
     79 H79       -73.8486   29.3330  -72.9914 H         1 UNK         0.0680 
     80 H80       -73.7141   29.0592  -71.2653 H         1 UNK         0.0680 
     81 H81       -71.8150   32.1798  -70.9037 H         1 UNK         0.1032 
     82 H82       -71.7461   30.4549  -71.1147 H         1 UNK         0.1032 
     83 H83       -71.7857   32.4499  -73.4332 H         1 UNK         0.0461 
     84 H84       -67.9136   31.4349  -73.0354 H         1 UNK         0.3453 
     85 H85       -69.1001   30.3111  -73.6532 H         1 UNK         0.3453 
     86 H86       -71.4341   29.5017  -73.4173 H         1 UNK         0.2984 
     87 H87       -72.2988   29.3258  -76.7945 H         1 UNK         0.0554 
     88 H88       -70.3209   27.8916  -77.1802 H         1 UNK         0.0847 
     89 H89       -69.5204   28.5606  -75.7590 H         1 UNK         0.0847 
     90 H90       -69.8546   29.5844  -77.1469 H         1 UNK         0.0847 
     91 H91       -73.0949   27.6757  -75.6533 H         1 UNK         0.3141 
     92 H92       -71.7747   25.3859  -73.2802 H         1 UNK         0.0743 
     93 H93       -74.4145   26.9388  -73.2368 H         1 UNK         0.0784 
     94 H94       -74.1123   25.3901  -72.4605 H         1 UNK         0.0784 
     95 H95       -73.2660   26.8200  -71.9004 H         1 UNK         0.0784 
     96 H96       -74.0500   25.2808  -75.0234 H         1 UNK         0.3213 
     97 H97       -72.3273   23.6787  -77.7366 H         1 UNK         0.0855 
     98 H98       -72.9748   21.9436  -76.0848 H         1 UNK         0.0814 
     99 H99       -74.2259   22.1251  -77.3035 H         1 UNK         0.0814 
    100 H100      -74.4501   22.8135  -75.6960 H         1 UNK         0.0814 
    101 H101      -75.0129   24.7132  -77.2234 H         1 UNK         0.3105 
    102 H102      -74.5798   27.7066  -79.0299 H         1 UNK         0.0547 
    103 H103      -74.8437   26.0978  -80.9131 H         1 UNK         0.0837 
    104 H104      -76.0061   25.1642  -79.9822 H         1 UNK         0.0837 
    105 H105      -76.3886   26.8117  -80.4818 H         1 UNK         0.0837 
    106 H106      -76.8611   26.2991  -77.9501 H         1 UNK         0.3020 
    107 H107      -76.6894   27.8025  -74.7155 H         1 UNK         0.1245 
    108 H108      -78.4586   28.3921  -77.1548 H         1 UNK         0.0781 
    109 H109      -77.5541   29.5914  -76.2761 H         1 UNK         0.0781 
    110 H110      -79.7549   30.6404  -73.4385 H         1 UNK         0.0836 
    111 H111      -78.4243   30.9898  -74.5127 H         1 UNK         0.0836 
    112 H112      -78.6975   26.1523  -75.6517 H         1 UNK         0.3022 
    113 H113      -77.0605   23.0150  -75.7537 H         1 UNK         0.0747 
    114 H114      -77.3268   23.2319  -73.2605 H         1 UNK         0.0793 
    115 H115      -78.9492   23.8638  -73.5036 H         1 UNK         0.0793 
    116 H116      -78.5631   22.2167  -73.9868 H         1 UNK         0.0793 
    117 H117      -79.8354   23.5504  -75.7937 H         1 UNK         0.3047 
    118 H118      -80.1571   24.6491  -79.1375 H         1 UNK         0.0822 
    119 H119      -80.7419   21.8680  -77.9939 H         1 UNK         0.0807 
    120 H120      -79.8550   22.2272  -79.4645 H         1 UNK         0.0807 
    121 H121      -81.5668   22.6078  -79.3656 H         1 UNK         0.0807 
    122 H122      -81.6723   25.5079  -77.8217 H         1 UNK         0.2946 
    123 H123      -82.9596   26.0458  -76.2247 H         1 UNK         0.1144 
    124 H124      -84.6799   24.3212  -76.8434 H         1 UNK         0.0793 
    125 H125      -84.5091   23.5826  -75.2571 H         1 UNK         0.0793 
    126 H126      -85.1455   25.2211  -75.4098 H         1 UNK         0.0793 
    127 H127      -83.4371   25.2719  -73.6436 H         1 UNK         0.2896 
@<TRIPOS>BOND
     1    1    2 1    
     2    1   67 1    
     3    1   68 1    
     4    1   69 1    
     5    2    3 2    
     6    2    4 am   BACKBONE|DICT|INTERRES
     7    4    5 1    
     8    4   70 1    
     9    5    6 1    
    10    5   65 1    
    11    5   71 1    
    12    6    7 1    
    13    6   72 1    
    14    6   73 1    
    15    7    8 1    
    16    8    9 1    
    17    8   74 1    
    18    8   75 1    
    19    9   10 ar   
    20    9   14 ar   
    21   10   11 ar   
    22   10   76 1    
    23   11   12 ar   
    24   11   48 1    
    25   12   13 ar   
    26   12   77 1    
    27   13   14 ar   
    28   13   15 1    
    29   14   78 1    
    30   15   16 1    
    31   15   79 1    
    32   15   80 1    
    33   16   17 1    
    34   17   18 1    
    35   17   81 1    
    36   17   82 1    
    37   18   19 1    
    38   18   22 1    
    39   18   83 1    
    40   19   20 am   BACKBONE|DICT|INTERRES
    41   19   21 2    
    42   20   84 1    
    43   20   85 1    
    44   22   23 am   BACKBONE|DICT|INTERRES
    45   22   86 1    
    46   23   24 2    
    47   23   25 1    
    48   25   26 1    
    49   25   27 1    
    50   25   87 1    
    51   26   88 1    
    52   26   89 1    
    53   26   90 1    
    54   27   28 am   BACKBONE|DICT|INTERRES
    55   27   91 1    
    56   28   29 2    
    57   28   30 1    
    58   30   31 1    
    59   30   32 1    
    60   30   92 1    
    61   31   93 1    
    62   31   94 1    
    63   31   95 1    
    64   32   33 am   BACKBONE|DICT|INTERRES
    65   32   96 1    
    66   33   34 2    
    67   33   35 1    
    68   35   36 1    
    69   35   37 1    
    70   35   97 1    
    71   36   98 1    
    72   36   99 1    
    73   36  100 1    
    74   37   38 am   BACKBONE|DICT|INTERRES
    75   37  101 1    
    76   38   39 2    
    77   38   40 1    
    78   40   41 1    
    79   40   42 1    
    80   40  102 1    
    81   41  103 1    
    82   41  104 1    
    83   41  105 1    
    84   42   43 am   BACKBONE|DICT|INTERRES
    85   42  106 1    
    86   43   44 2    
    87   43   45 1    
    88   45   46 1    
    89   45   49 1    
    90   45  107 1    
    91   46   47 1    
    92   46  108 1    
    93   46  109 1    
    94   47   48 1    
    95   48  110 1    
    96   48  111 1    
    97   49   50 am   BACKBONE|DICT|INTERRES
    98   49  112 1    
    99   50   51 2    
   100   50   52 1    
   101   52   53 1    
   102   52   54 1    
   103   52  113 1    
   104   53  114 1    
   105   53  115 1    
   106   53  116 1    
   107   54   55 am   BACKBONE|DICT|INTERRES
   108   54  117 1    
   109   55   56 2    
   110   55   57 1    
   111   57   58 1    
   112   57   59 1    
   113   57  118 1    
   114   58  119 1    
   115   58  120 1    
   116   58  121 1    
   117   59   60 am   BACKBONE|DICT|INTERRES
   118   59  122 1    
   119   60   61 2    
   120   60   62 1    
   121   62   63 1    
   122   62   64 1    
   123   62  123 1    
   124   63  124 1    
   125   63  125 1    
   126   63  126 1    
   127   64   65 am   BACKBONE|DICT|INTERRES
   128   64  127 1    
   129   65   66 2    
@<TRIPOS>SUBSTRUCTURE
     1 UNK         1 GROUP             0       ****    0 ROOT    
