@<TRIPOS>MOLECULE
3R135
127   129    1
SMALL
USER_CHARGES


@<TRIPOS>ATOM
      1 CA        -83.6135   27.8799  -72.3876 C.3       0 UNK        -0.1998 
      2 C         -82.4416   27.6244  -73.3219 C.2       0 UNK         0.4909 
      3 O         -81.7416   26.6251  -73.1651 O.2       0 UNK        -0.5240 
      4 N         -82.2277   28.5137  -74.3036 N.am      1 UNK        -0.4739 
      5 CA        -81.1273   28.4924  -75.2879 C.3       1 UNK         0.0864 
      6 C6        -79.7249   28.6867  -74.6391 C.3       11 UNK        -0.0881 
      7 S7        -79.5457   30.3150  -73.8300 S.3       11 UNK        -0.2682 
      8 C8        -79.8157   29.9334  -72.0689 C.3       11 UNK         0.0289 
      9 C9        -78.5942   29.3111  -71.4094 C.ar      11 UNK        -0.0687 
     10 C10       -78.4779   27.9220  -71.2937 C.ar      11 UNK        -0.0823 
     11 C11       -77.3715   27.3530  -70.6538 C.ar      11 UNK        -0.0830 
     12 C12       -76.3913   28.1875  -70.1067 C.ar      11 UNK        -0.1021 
     13 C13       -76.4932   29.5766  -70.2234 C.ar      11 UNK        -0.0753 
     14 C14       -77.5956   30.1324  -70.8782 C.ar      11 UNK        -0.0933 
     15 C15       -75.4170   30.4756  -69.6322 C.3       11 UNK         0.0166 
     16 S16       -73.8599   30.3825  -70.5685 S.3       11 UNK        -0.2615 
     17 C17       -74.3670   31.0658  -72.1884 C.3       11 UNK        -0.0865 
     18 CA        -73.1723   31.4412  -73.1117 C.3       10 UNK         0.0862 
     19 C         -72.3916   32.6902  -72.6224 C.2       10 UNK         0.5551 
     20 N         -73.0165   33.8597  -72.6460 N.am      10 UNK        -0.7319 
     21 O         -71.2303   32.6137  -72.2221 O.2       10 UNK        -0.5018 
     22 N         -72.2742   30.3031  -73.3322 N.am      10 UNK        -0.4509 
     23 C         -72.4974   29.2869  -74.1672 C.2       10 UNK         0.4899 
     24 O         -73.4588   29.2249  -74.9358 O.2       10 UNK        -0.4839 
     25 CA        -71.4799   28.1417  -74.0984 C.3       9 UNK         0.0222 
     26 CB        -71.6804   27.3061  -72.8194 C.3       9 UNK        -0.1966 
     27 N         -71.6132   27.2716  -75.2635 N.am      9 UNK        -0.4218 
     28 C         -70.6087   26.6136  -75.8540 C.2       9 UNK         0.5020 
     29 O         -69.4343   26.6845  -75.4870 O.2       9 UNK        -0.5274 
     30 CA        -70.9597   25.7063  -77.0460 C.3       8 UNK         0.0270 
     31 CB        -71.2915   24.2863  -76.5578 C.3       8 UNK        -0.1976 
     32 N         -72.0712   26.2024  -77.8571 N.am      8 UNK        -0.4313 
     33 C         -72.0479   27.2848  -78.6426 C.2       8 UNK         0.5041 
     34 O         -71.0520   27.9954  -78.7866 O.2       8 UNK        -0.5577 
     35 CA        -73.3399   27.6537  -79.4022 C.3       7 UNK         0.0284 
     36 CB        -73.3014   27.1174  -80.8471 C.3       7 UNK        -0.1958 
     37 N         -74.5957   27.2858  -78.7263 N.am      7 UNK        -0.4454 
     38 C         -75.0862   26.0668  -78.4608 C.2       7 UNK         0.5089 
     39 O         -74.5351   25.0113  -78.7789 O.2       7 UNK        -0.5125 
     40 CA        -76.3878   26.0258  -77.6408 C.3       6 UNK         0.0408 
     41 CB        -77.4827   25.2928  -78.4329 C.3       6 UNK        -0.1791 
     42 N         -76.2368   25.3947  -76.3213 N.am      6 UNK        -0.4762 
     43 C         -75.2487   25.6062  -75.4314 C.2       6 UNK         0.5007 
     44 O         -74.2933   26.3530  -75.6345 O.2       6 UNK        -0.5032 
     45 CA        -75.3265   24.8921  -74.0642 C.3       5 UNK         0.0783 
     46 C46       -75.7880   25.8999  -72.9847 C.3       11 UNK        -0.0857 
     47 S47       -75.6925   25.2161  -71.2967 S.3       11 UNK        -0.2512 
     48 C48       -77.2389   25.8372  -70.5529 C.3       11 UNK         0.0225 
     49 N         -76.1715   23.6963  -74.0851 N.am      5 UNK        -0.4615 
     50 C         -75.9228   22.5750  -74.7723 C.2       4 UNK         0.5053 
     51 O         -74.8676   22.3656  -75.3707 O.2       4 UNK        -0.5105 
     52 CA        -77.0412   21.5110  -74.8234 C.3       4 UNK         0.0263 
     53 CB        -76.6450   20.2804  -73.9904 C.3       4 UNK        -0.1981 
     54 N         -78.3762   21.9623  -74.3971 N.am      4 UNK        -0.4224 
     55 C         -79.0727   22.9839  -74.9178 C.2       3 UNK         0.4895 
     56 O         -78.6359   23.7208  -75.8035 O.2       3 UNK        -0.5091 
     57 CA        -80.4507   23.2553  -74.2836 C.3       3 UNK         0.0250 
     58 CB        -80.2834   23.7677  -72.8418 C.3       3 UNK        -0.1996 
     59 N         -81.2425   24.2343  -75.0349 N.am      3 UNK        -0.4254 
     60 C         -81.7300   24.0546  -76.2729 C.2       2 UNK         0.5004 
     61 O         -81.6537   22.9875  -76.8847 O.2       2 UNK        -0.5226 
     62 CA        -82.4438   25.2451  -76.9471 C.3       2 UNK         0.0269 
     63 CB        -83.9485   24.9613  -77.0943 C.3       2 UNK        -0.1926 
     64 N         -82.2738   26.5131  -76.2324 N.am      2 UNK        -0.4687 
     65 C         -81.1632   27.2651  -76.2346 C.2       1 UNK         0.5165 
     66 O         -80.1963   27.0255  -76.9567 O.2       1 UNK        -0.5079 
     67 H67       -83.2594   27.9657  -71.3606 H         1 UNK         0.0900 
     68 H68       -84.1456   28.7966  -72.6410 H         1 UNK         0.0900 
     69 H69       -84.3194   27.0513  -72.4365 H         1 UNK         0.0900 
     70 H70       -82.8501   29.3062  -74.3856 H         1 UNK         0.2959 
     71 H71       -81.3010   29.3463  -75.9449 H         1 UNK         0.1079 
     72 H72       -78.9400   28.6366  -75.3961 H         1 UNK         0.0837 
     73 H73       -79.5034   27.8837  -73.9372 H         1 UNK         0.0837 
     74 H74       -80.6819   29.2856  -71.9490 H         1 UNK         0.0685 
     75 H75       -80.0695   30.8609  -71.5535 H         1 UNK         0.0685 
     76 H76       -79.2529   27.2850  -71.6987 H         1 UNK         0.1434 
     77 H77       -75.5357   27.7544  -69.6064 H         1 UNK         0.1329 
     78 H78       -77.6840   31.2066  -70.9675 H         1 UNK         0.1335 
     79 H79       -75.7519   31.5133  -69.5915 H         1 UNK         0.0680 
     80 H80       -75.2260   30.1754  -68.6009 H         1 UNK         0.0680 
     81 H81       -75.0168   31.9278  -72.0292 H         1 UNK         0.1032 
     82 H82       -74.9894   30.3205  -72.6868 H         1 UNK         0.1032 
     83 H83       -73.5782   31.7211  -74.0860 H         1 UNK         0.0461 
     84 H84       -72.5258   34.6819  -72.3304 H         1 UNK         0.3453 
     85 H85       -73.9636   33.9414  -72.9812 H         1 UNK         0.3453 
     86 H86       -71.4428   30.3144  -72.7565 H         1 UNK         0.2984 
     87 H87       -70.4832   28.5880  -74.0865 H         1 UNK         0.0554 
     88 H88       -70.9334   26.5161  -72.7402 H         1 UNK         0.0847 
     89 H89       -72.6652   26.8377  -72.7978 H         1 UNK         0.0847 
     90 H90       -71.5941   27.9220  -71.9233 H         1 UNK         0.0847 
     91 H91       -72.5653   27.1574  -75.6106 H         1 UNK         0.3141 
     92 H92       -70.0779   25.6501  -77.6877 H         1 UNK         0.0743 
     93 H93       -70.4736   23.8754  -75.9642 H         1 UNK         0.0784 
     94 H94       -71.4571   23.6073  -77.3946 H         1 UNK         0.0784 
     95 H95       -72.1869   24.2727  -75.9344 H         1 UNK         0.0784 
     96 H96       -72.9338   25.6671  -77.8366 H         1 UNK         0.3213 
     97 H97       -73.3528   28.7434  -79.4610 H         1 UNK         0.0855 
     98 H98       -73.2555   26.0285  -80.8787 H         1 UNK         0.0814 
     99 H99       -72.4236   27.4914  -81.3758 H         1 UNK         0.0814 
    100 H100      -74.1783   27.4336  -81.4120 H         1 UNK         0.0814 
    101 H101      -75.1119   28.0720  -78.3551 H         1 UNK         0.3105 
    102 H102      -76.7272   27.0484  -77.4654 H         1 UNK         0.0547 
    103 H103      -78.4437   25.3386  -77.9224 H         1 UNK         0.0837 
    104 H104      -77.2359   24.2405  -78.5797 H         1 UNK         0.0837 
    105 H105      -77.6210   25.7386  -79.4186 H         1 UNK         0.0837 
    106 H106      -76.9840   24.7567  -76.0595 H         1 UNK         0.3020 
    107 H107      -74.3096   24.5723  -73.8247 H         1 UNK         0.1245 
    108 H108      -76.8084   26.2283  -73.1920 H         1 UNK         0.0781 
    109 H109      -75.1723   26.8022  -73.0025 H         1 UNK         0.0781 
    110 H110      -78.0835   25.3385  -71.0299 H         1 UNK         0.0836 
    111 H111      -77.2664   25.5476  -69.5016 H         1 UNK         0.0836 
    112 H112      -77.0563   23.7716  -73.6080 H         1 UNK         0.3022 
    113 H113      -77.1277   21.2025  -75.8672 H         1 UNK         0.0747 
    114 H114      -77.3665   19.4714  -74.1060 H         1 UNK         0.0793 
    115 H115      -75.6749   19.8907  -74.3028 H         1 UNK         0.0793 
    116 H116      -76.5727   20.5197  -72.9286 H         1 UNK         0.0793 
    117 H117      -78.8047   21.4243  -73.6572 H         1 UNK         0.3047 
    118 H118      -81.0060   22.3153  -74.2656 H         1 UNK         0.0822 
    119 H119      -81.2510   23.9409  -72.3700 H         1 UNK         0.0807 
    120 H120      -79.7302   24.7075  -72.8141 H         1 UNK         0.0807 
    121 H121      -79.7482   23.0525  -72.2162 H         1 UNK         0.0807 
    122 H122      -81.3650   25.1397  -74.5944 H         1 UNK         0.2946 
    123 H123      -82.0129   25.3496  -77.9457 H         1 UNK         0.1144 
    124 H124      -84.4542   25.7660  -77.6284 H         1 UNK         0.0793 
    125 H125      -84.4336   24.8430  -76.1246 H         1 UNK         0.0793 
    126 H126      -84.1204   24.0435  -77.6586 H         1 UNK         0.0793 
    127 H127      -83.0205   26.7872  -75.6103 H         1 UNK         0.2896 
@<TRIPOS>BOND
     1    1    2 1    
     2    1   67 1    
     3    1   68 1    
     4    1   69 1    
     5    2    3 2    
     6    2    4 am   BACKBONE|DICT|INTERRES
     7    4    5 1    
     8    4   70 1    
     9    5    6 1    
    10    5   65 1    
    11    5   71 1    
    12    6    7 1    
    13    6   72 1    
    14    6   73 1    
    15    7    8 1    
    16    8    9 1    
    17    8   74 1    
    18    8   75 1    
    19    9   10 ar   
    20    9   14 ar   
    21   10   11 ar   
    22   10   76 1    
    23   11   12 ar   
    24   11   48 1    
    25   12   13 ar   
    26   12   77 1    
    27   13   14 ar   
    28   13   15 1    
    29   14   78 1    
    30   15   16 1    
    31   15   79 1    
    32   15   80 1    
    33   16   17 1    
    34   17   18 1    
    35   17   81 1    
    36   17   82 1    
    37   18   19 1    
    38   18   22 1    
    39   18   83 1    
    40   19   20 am   BACKBONE|DICT|INTERRES
    41   19   21 2    
    42   20   84 1    
    43   20   85 1    
    44   22   23 am   BACKBONE|DICT|INTERRES
    45   22   86 1    
    46   23   24 2    
    47   23   25 1    
    48   25   26 1    
    49   25   27 1    
    50   25   87 1    
    51   26   88 1    
    52   26   89 1    
    53   26   90 1    
    54   27   28 am   BACKBONE|DICT|INTERRES
    55   27   91 1    
    56   28   29 2    
    57   28   30 1    
    58   30   31 1    
    59   30   32 1    
    60   30   92 1    
    61   31   93 1    
    62   31   94 1    
    63   31   95 1    
    64   32   33 am   BACKBONE|DICT|INTERRES
    65   32   96 1    
    66   33   34 2    
    67   33   35 1    
    68   35   36 1    
    69   35   37 1    
    70   35   97 1    
    71   36   98 1    
    72   36   99 1    
    73   36  100 1    
    74   37   38 am   BACKBONE|DICT|INTERRES
    75   37  101 1    
    76   38   39 2    
    77   38   40 1    
    78   40   41 1    
    79   40   42 1    
    80   40  102 1    
    81   41  103 1    
    82   41  104 1    
    83   41  105 1    
    84   42   43 am   BACKBONE|DICT|INTERRES
    85   42  106 1    
    86   43   44 2    
    87   43   45 1    
    88   45   46 1    
    89   45   49 1    
    90   45  107 1    
    91   46   47 1    
    92   46  108 1    
    93   46  109 1    
    94   47   48 1    
    95   48  110 1    
    96   48  111 1    
    97   49   50 am   BACKBONE|DICT|INTERRES
    98   49  112 1    
    99   50   51 2    
   100   50   52 1    
   101   52   53 1    
   102   52   54 1    
   103   52  113 1    
   104   53  114 1    
   105   53  115 1    
   106   53  116 1    
   107   54   55 am   BACKBONE|DICT|INTERRES
   108   54  117 1    
   109   55   56 2    
   110   55   57 1    
   111   57   58 1    
   112   57   59 1    
   113   57  118 1    
   114   58  119 1    
   115   58  120 1    
   116   58  121 1    
   117   59   60 am   BACKBONE|DICT|INTERRES
   118   59  122 1    
   119   60   61 2    
   120   60   62 1    
   121   62   63 1    
   122   62   64 1    
   123   62  123 1    
   124   63  124 1    
   125   63  125 1    
   126   63  126 1    
   127   64   65 am   BACKBONE|DICT|INTERRES
   128   64  127 1    
   129   65   66 2    
@<TRIPOS>SUBSTRUCTURE
     1 UNK         1 GROUP             0       ****    0 ROOT    
