@<TRIPOS>MOLECULE
3R135
127   129    1
SMALL
USER_CHARGES


@<TRIPOS>ATOM
      1 CA        -82.1711   24.8338  -72.9606 C.3       0 UNK        -0.1998 
      2 C         -81.7972   25.8347  -74.0429 C.2       0 UNK         0.4909 
      3 O         -81.4969   25.4395  -75.1711 O.2       0 UNK        -0.5240 
      4 N         -81.8163   27.1292  -73.6980 N.am      1 UNK        -0.4739 
      5 CA        -81.5304   28.2720  -74.5762 C.3       1 UNK         0.0864 
      6 C6        -81.7962   29.6423  -73.8904 C.3       11 UNK        -0.0881 
      7 S7        -81.4681   29.7151  -72.0899 S.3       11 UNK        -0.2682 
      8 C8        -79.7625   30.3626  -71.9886 C.3       11 UNK         0.0289 
      9 C9        -78.6728   29.3127  -71.7569 C.ar      11 UNK        -0.0687 
     10 C10       -78.9379   28.0524  -71.2011 C.ar      11 UNK        -0.0823 
     11 C11       -77.9043   27.1373  -70.9762 C.ar      11 UNK        -0.0830 
     12 C12       -76.5896   27.4904  -71.2906 C.ar      11 UNK        -0.1021 
     13 C13       -76.3062   28.7481  -71.8290 C.ar      11 UNK        -0.0753 
     14 C14       -77.3505   29.6473  -72.0654 C.ar      11 UNK        -0.0933 
     15 C15       -74.8716   29.1484  -72.1339 C.3       11 UNK         0.0166 
     16 S16       -74.2789   30.3623  -70.9162 S.3       11 UNK        -0.2615 
     17 C17       -72.5024   30.4687  -71.3117 C.3       11 UNK        -0.0865 
     18 CA        -72.1506   31.7356  -72.1472 C.3       10 UNK         0.0862 
     19 C         -70.6258   32.0749  -72.1193 C.2       10 UNK         0.5551 
     20 N         -70.0630   32.6676  -73.1657 N.am      10 UNK        -0.7319 
     21 O         -69.9464   31.8323  -71.1246 O.2       10 UNK        -0.5018 
     22 N         -72.7536   31.7237  -73.4961 N.am      10 UNK        -0.4509 
     23 C         -72.4549   30.8583  -74.4735 C.2       10 UNK         0.4899 
     24 O         -71.6677   29.9155  -74.3444 O.2       10 UNK        -0.4839 
     25 CA        -73.1311   31.0943  -75.8322 C.3       9 UNK         0.0222 
     26 CB        -72.6189   32.3980  -76.4811 C.3       9 UNK        -0.1966 
     27 N         -72.8151   29.9405  -76.6670 N.am      9 UNK        -0.4218 
     28 C         -73.2656   29.6427  -77.8906 C.2       9 UNK         0.5020 
     29 O         -74.0625   30.3336  -78.5262 O.2       9 UNK        -0.5274 
     30 CA        -72.7285   28.3366  -78.5033 C.3       8 UNK         0.0270 
     31 CB        -71.3838   28.5817  -79.2082 C.3       8 UNK        -0.1976 
     32 N         -72.5694   27.2882  -77.4888 N.am      8 UNK        -0.4313 
     33 C         -73.5915   26.5739  -77.0027 C.2       8 UNK         0.5041 
     34 O         -74.7379   26.6370  -77.4499 O.2       8 UNK        -0.5577 
     35 CA        -73.2906   25.6777  -75.7944 C.3       7 UNK         0.0284 
     36 CB        -73.5724   26.4364  -74.4855 C.3       7 UNK        -0.1958 
     37 N         -74.1491   24.4973  -75.8436 N.am      7 UNK        -0.4454 
     38 C         -73.7244   23.2383  -76.0027 C.2       7 UNK         0.5089 
     39 O         -72.5346   22.9219  -76.0688 O.2       7 UNK        -0.5125 
     40 CA        -74.8132   22.1532  -76.1223 C.3       6 UNK         0.0408 
     41 CB        -74.2731   20.7213  -75.9205 C.3       6 UNK        -0.1791 
     42 N         -75.9738   22.4097  -75.2643 N.am      6 UNK        -0.4762 
     43 C         -76.0271   22.4361  -73.9211 C.2       6 UNK         0.5007 
     44 O         -75.0672   22.1771  -73.1943 O.2       6 UNK        -0.5032 
     45 CA        -77.3772   22.8216  -73.2702 C.3       5 UNK         0.0783 
     46 C46       -77.2355   24.1249  -72.4410 C.3       11 UNK        -0.0857 
     47 S47       -78.7906   24.5920  -71.6107 S.3       11 UNK        -0.2512 
     48 C48       -78.2091   25.7793  -70.3621 C.3       11 UNK         0.0225 
     49 N         -78.4484   22.9176  -74.2699 N.am      5 UNK        -0.4615 
     50 C         -79.1477   21.8819  -74.7523 C.2       4 UNK         0.5053 
     51 O         -79.0486   20.7339  -74.3192 O.2       4 UNK        -0.5105 
     52 CA        -80.0875   22.1565  -75.9411 C.3       4 UNK         0.0263 
     53 CB        -81.5638   22.0354  -75.5336 C.3       4 UNK        -0.1981 
     54 N         -79.8450   23.4614  -76.5704 N.am      4 UNK        -0.4224 
     55 C         -78.8541   23.6779  -77.4489 C.2       3 UNK         0.4895 
     56 O         -78.0682   22.8042  -77.8172 O.2       3 UNK        -0.5091 
     57 CA        -78.6779   25.1103  -77.9775 C.3       3 UNK         0.0250 
     58 CB        -79.8081   25.4765  -78.9530 C.3       3 UNK        -0.1996 
     59 N         -78.5897   26.1292  -76.9302 N.am      3 UNK        -0.4254 
     60 C         -77.7196   26.1528  -75.9122 C.2       2 UNK         0.5004 
     61 O         -76.9157   25.2524  -75.6782 O.2       2 UNK        -0.5226 
     62 CA        -77.7771   27.3607  -74.9627 C.3       2 UNK         0.0269 
     63 CB        -77.0353   28.5796  -75.5495 C.3       2 UNK        -0.1926 
     64 N         -79.1419   27.6891  -74.5297 N.am      2 UNK        -0.4687 
     65 C         -80.1435   28.2176  -75.2461 C.2       1 UNK         0.5165 
     66 O         -80.0289   28.5918  -76.4142 O.2       1 UNK        -0.5079 
     67 H67       -81.4021   24.0680  -72.8718 H         1 UNK         0.0900 
     68 H68       -82.2822   25.3097  -71.9866 H         1 UNK         0.0900 
     69 H69       -83.1125   24.3458  -73.2109 H         1 UNK         0.0900 
     70 H70       -82.0615   27.3857  -72.7516 H         1 UNK         0.2959 
     71 H71       -82.2395   28.1889  -75.4033 H         1 UNK         0.1079 
     72 H72       -82.8557   29.8765  -74.0056 H         1 UNK         0.0837 
     73 H73       -81.2810   30.4603  -74.3984 H         1 UNK         0.0837 
     74 H74       -79.5400   30.9380  -72.8883 H         1 UNK         0.0685 
     75 H75       -79.7231   31.0697  -71.1591 H         1 UNK         0.0685 
     76 H76       -79.9460   27.7748  -70.9287 H         1 UNK         0.1434 
     77 H77       -75.7860   26.7912  -71.1034 H         1 UNK         0.1329 
     78 H78       -77.1252   30.6234  -72.4732 H         1 UNK         0.1335 
     79 H79       -74.8153   29.5721  -73.1370 H         1 UNK         0.0680 
     80 H80       -74.2194   28.2739  -72.1243 H         1 UNK         0.0680 
     81 H81       -72.1646   29.5577  -71.8070 H         1 UNK         0.1032 
     82 H82       -71.9829   30.4864  -70.3521 H         1 UNK         0.1032 
     83 H83       -72.6096   32.5856  -71.6408 H         1 UNK         0.0461 
     84 H84       -70.6085   32.8886  -73.9824 H         1 UNK         0.3453 
     85 H85       -69.0813   32.8943  -73.1356 H         1 UNK         0.3453 
     86 H86       -73.4053   32.4715  -73.6866 H         1 UNK         0.2984 
     87 H87       -74.2120   31.1416  -75.6865 H         1 UNK         0.0554 
     88 H88       -71.5421   32.3655  -76.6516 H         1 UNK         0.0847 
     89 H89       -72.8250   33.2646  -75.8522 H         1 UNK         0.0847 
     90 H90       -73.1006   32.5872  -77.4401 H         1 UNK         0.0847 
     91 H91       -72.1702   29.3061  -76.2102 H         1 UNK         0.3141 
     92 H92       -73.4463   27.9989  -79.2545 H         1 UNK         0.0743 
     93 H93       -70.6142   28.9198  -78.5129 H         1 UNK         0.0784 
     94 H94       -71.0218   27.6766  -79.6965 H         1 UNK         0.0784 
     95 H95       -71.4837   29.3464  -79.9798 H         1 UNK         0.0784 
     96 H96       -71.6479   27.1648  -77.0930 H         1 UNK         0.3213 
     97 H97       -72.2364   25.3939  -75.8179 H         1 UNK         0.0855 
     98 H98       -74.6180   26.7370  -74.4109 H         1 UNK         0.0814 
     99 H99       -72.9647   27.3392  -74.4125 H         1 UNK         0.0814 
    100 H100      -73.3430   25.8199  -73.6163 H         1 UNK         0.0814 
    101 H101      -75.1508   24.6900  -75.8602 H         1 UNK         0.3105 
    102 H102      -75.1849   22.2181  -77.1459 H         1 UNK         0.0547 
    103 H103      -73.5138   20.4827  -76.6660 H         1 UNK         0.0837 
    104 H104      -73.8136   20.5940  -74.9401 H         1 UNK         0.0837 
    105 H105      -75.0661   19.9802  -76.0194 H         1 UNK         0.0837 
    106 H106      -76.8111   22.6872  -75.7609 H         1 UNK         0.3020 
    107 H107      -77.6238   22.0140  -72.5769 H         1 UNK         0.1245 
    108 H108      -76.9093   24.9552  -73.0663 H         1 UNK         0.0781 
    109 H109      -76.4654   24.0007  -71.6773 H         1 UNK         0.0781 
    110 H110      -77.3352   25.3792  -69.8458 H         1 UNK         0.0836 
    111 H111      -78.9820   25.8911  -69.6002 H         1 UNK         0.0836 
    112 H112      -78.5730   23.8258  -74.6936 H         1 UNK         0.3022 
    113 H113      -79.8947   21.3751  -76.6797 H         1 UNK         0.0747 
    114 H114      -82.2236   22.1773  -76.3896 H         1 UNK         0.0793 
    115 H115      -81.7747   21.0474  -75.1222 H         1 UNK         0.0793 
    116 H116      -81.8382   22.7656  -74.7768 H         1 UNK         0.0793 
    117 H117      -80.4337   24.2358  -76.2687 H         1 UNK         0.3047 
    118 H118      -77.7334   25.1392  -78.5251 H         1 UNK         0.0822 
    119 H119      -79.6230   26.4396  -79.4292 H         1 UNK         0.0807 
    120 H120      -80.7743   25.5332  -78.4495 H         1 UNK         0.0807 
    121 H121      -79.8955   24.7346  -79.7481 H         1 UNK         0.0807 
    122 H122      -79.2169   26.9237  -77.0083 H         1 UNK         0.2946 
    123 H123      -77.2472   27.0702  -74.0561 H         1 UNK         0.1144 
    124 H124      -75.9766   28.3590  -75.6865 H         1 UNK         0.0793 
    125 H125      -77.1027   29.4451  -74.8920 H         1 UNK         0.0793 
    126 H126      -77.4263   28.8698  -76.5247 H         1 UNK         0.0793 
    127 H127      -79.3637   27.4097  -73.5835 H         1 UNK         0.2896 
@<TRIPOS>BOND
     1    1    2 1    
     2    1   67 1    
     3    1   68 1    
     4    1   69 1    
     5    2    3 2    
     6    2    4 am   BACKBONE|DICT|INTERRES
     7    4    5 1    
     8    4   70 1    
     9    5    6 1    
    10    5   65 1    
    11    5   71 1    
    12    6    7 1    
    13    6   72 1    
    14    6   73 1    
    15    7    8 1    
    16    8    9 1    
    17    8   74 1    
    18    8   75 1    
    19    9   10 ar   
    20    9   14 ar   
    21   10   11 ar   
    22   10   76 1    
    23   11   12 ar   
    24   11   48 1    
    25   12   13 ar   
    26   12   77 1    
    27   13   14 ar   
    28   13   15 1    
    29   14   78 1    
    30   15   16 1    
    31   15   79 1    
    32   15   80 1    
    33   16   17 1    
    34   17   18 1    
    35   17   81 1    
    36   17   82 1    
    37   18   19 1    
    38   18   22 1    
    39   18   83 1    
    40   19   20 am   BACKBONE|DICT|INTERRES
    41   19   21 2    
    42   20   84 1    
    43   20   85 1    
    44   22   23 am   BACKBONE|DICT|INTERRES
    45   22   86 1    
    46   23   24 2    
    47   23   25 1    
    48   25   26 1    
    49   25   27 1    
    50   25   87 1    
    51   26   88 1    
    52   26   89 1    
    53   26   90 1    
    54   27   28 am   BACKBONE|DICT|INTERRES
    55   27   91 1    
    56   28   29 2    
    57   28   30 1    
    58   30   31 1    
    59   30   32 1    
    60   30   92 1    
    61   31   93 1    
    62   31   94 1    
    63   31   95 1    
    64   32   33 am   BACKBONE|DICT|INTERRES
    65   32   96 1    
    66   33   34 2    
    67   33   35 1    
    68   35   36 1    
    69   35   37 1    
    70   35   97 1    
    71   36   98 1    
    72   36   99 1    
    73   36  100 1    
    74   37   38 am   BACKBONE|DICT|INTERRES
    75   37  101 1    
    76   38   39 2    
    77   38   40 1    
    78   40   41 1    
    79   40   42 1    
    80   40  102 1    
    81   41  103 1    
    82   41  104 1    
    83   41  105 1    
    84   42   43 am   BACKBONE|DICT|INTERRES
    85   42  106 1    
    86   43   44 2    
    87   43   45 1    
    88   45   46 1    
    89   45   49 1    
    90   45  107 1    
    91   46   47 1    
    92   46  108 1    
    93   46  109 1    
    94   47   48 1    
    95   48  110 1    
    96   48  111 1    
    97   49   50 am   BACKBONE|DICT|INTERRES
    98   49  112 1    
    99   50   51 2    
   100   50   52 1    
   101   52   53 1    
   102   52   54 1    
   103   52  113 1    
   104   53  114 1    
   105   53  115 1    
   106   53  116 1    
   107   54   55 am   BACKBONE|DICT|INTERRES
   108   54  117 1    
   109   55   56 2    
   110   55   57 1    
   111   57   58 1    
   112   57   59 1    
   113   57  118 1    
   114   58  119 1    
   115   58  120 1    
   116   58  121 1    
   117   59   60 am   BACKBONE|DICT|INTERRES
   118   59  122 1    
   119   60   61 2    
   120   60   62 1    
   121   62   63 1    
   122   62   64 1    
   123   62  123 1    
   124   63  124 1    
   125   63  125 1    
   126   63  126 1    
   127   64   65 am   BACKBONE|DICT|INTERRES
   128   64  127 1    
   129   65   66 2    
@<TRIPOS>SUBSTRUCTURE
     1 UNK         1 GROUP             0       ****    0 ROOT    
