@<TRIPOS>MOLECULE
3R135
127   129    1
SMALL
USER_CHARGES


@<TRIPOS>ATOM
      1 CA        -81.4136   28.1482  -76.9281 C.3       0 UNK        -0.1998 
      2 C         -80.8948   27.4273  -75.6947 C.2       0 UNK         0.4909 
      3 O         -79.8516   26.7786  -75.7603 O.2       0 UNK        -0.5240 
      4 N         -81.6036   27.5405  -74.5620 N.am      1 UNK        -0.4739 
      5 CA        -81.2765   26.8638  -73.2974 C.3       1 UNK         0.0864 
      6 C6        -82.1506   27.4057  -72.1328 C.3       11 UNK        -0.0881 
      7 S7        -81.4889   27.3985  -70.4209 S.3       11 UNK        -0.2682 
      8 C8        -79.7412   26.8620  -70.4704 C.3       11 UNK         0.0289 
      9 C9        -78.7149   27.9439  -70.8176 C.ar      11 UNK        -0.0687 
     10 C10       -79.0083   29.0331  -71.6496 C.ar      11 UNK        -0.0823 
     11 C11       -78.0201   29.9624  -71.9908 C.ar      11 UNK        -0.0830 
     12 C12       -76.7324   29.8186  -71.4690 C.ar      11 UNK        -0.1021 
     13 C13       -76.4271   28.7477  -70.6258 C.ar      11 UNK        -0.0753 
     14 C14       -77.4178   27.8147  -70.3100 C.ar      11 UNK        -0.0933 
     15 C15       -75.0223   28.5896  -70.0704 C.3       11 UNK         0.0166 
     16 S16       -74.0847   27.3859  -71.0536 S.3       11 UNK        -0.2615 
     17 C17       -72.3699   27.9140  -70.7118 C.3       11 UNK        -0.0865 
     18 CA        -71.8869   29.0866  -71.6121 C.3       10 UNK         0.0862 
     19 C         -70.3678   29.3473  -71.3924 C.2       10 UNK         0.5551 
     20 N         -69.4999   29.0779  -72.3613 N.am      10 UNK        -0.7319 
     21 O         -69.9739   29.7989  -70.3201 O.2       10 UNK        -0.5018 
     22 N         -72.2873   28.8878  -73.0107 N.am      10 UNK        -0.4509 
     23 C         -72.2315   29.7874  -73.9994 C.2       10 UNK         0.4899 
     24 O         -71.8612   30.9523  -73.8492 O.2       10 UNK        -0.4839 
     25 CA        -72.6819   29.2900  -75.3886 C.3       9 UNK         0.0222 
     26 CB        -71.9723   30.0201  -76.5476 C.3       9 UNK        -0.1966 
     27 N         -72.5849   27.8298  -75.5424 N.am      9 UNK        -0.4218 
     28 C         -71.4712   27.0829  -75.4651 C.2       9 UNK         0.5020 
     29 O         -70.3395   27.5440  -75.3089 O.2       9 UNK        -0.5274 
     30 CA        -71.6529   25.5612  -75.5136 C.3       8 UNK         0.0270 
     31 CB        -71.8882   25.0115  -74.0952 C.3       8 UNK        -0.1976 
     32 N         -72.7694   25.1699  -76.3778 N.am      8 UNK        -0.4313 
     33 C         -72.6248   24.6797  -77.6153 C.2       8 UNK         0.5041 
     34 O         -71.5373   24.5307  -78.1750 O.2       8 UNK        -0.5577 
     35 CA        -73.9051   24.2546  -78.3479 C.3       7 UNK         0.0284 
     36 CB        -74.4592   22.9458  -77.7590 C.3       7 UNK        -0.1958 
     37 N         -74.9516   25.2765  -78.3362 N.am      7 UNK        -0.4454 
     38 C         -74.9342   26.3983  -79.0692 C.2       7 UNK         0.5089 
     39 O         -73.9843   26.7482  -79.7698 O.2       7 UNK        -0.5125 
     40 CA        -76.2049   27.2623  -79.0370 C.3       6 UNK         0.0408 
     41 CB        -77.3206   26.6225  -79.8799 C.3       6 UNK        -0.1791 
     42 N         -76.6802   27.4540  -77.6684 N.am      6 UNK        -0.4762 
     43 C         -76.3274   28.4798  -76.8806 C.2       6 UNK         0.5007 
     44 O         -75.6341   29.4220  -77.2631 O.2       6 UNK        -0.5032 
     45 CA        -76.8139   28.4446  -75.4149 C.3       5 UNK         0.0783 
     46 C46       -78.0035   29.4146  -75.1781 C.3       11 UNK        -0.0857 
     47 S47       -77.4526   31.0223  -74.5134 S.3       11 UNK        -0.2512 
     48 C48       -78.3459   31.1219  -72.9245 C.3       11 UNK         0.0225 
     49 N         -77.1106   27.0811  -74.9624 N.am      5 UNK        -0.4615 
     50 C         -76.1696   26.1620  -74.7139 C.2       4 UNK         0.5053 
     51 O         -74.9661   26.3569  -74.8940 O.2       4 UNK        -0.5105 
     52 CA        -76.6342   24.7826  -74.2211 C.3       4 UNK         0.0263 
     53 CB        -76.8113   24.8054  -72.6955 C.3       4 UNK        -0.1981 
     54 N         -77.8587   24.2653  -74.8429 N.am      4 UNK        -0.4224 
     55 C         -78.0527   24.0950  -76.1619 C.2       3 UNK         0.4895 
     56 O         -77.2665   24.4951  -77.0194 O.2       3 UNK        -0.5091 
     57 CA        -79.3097   23.3387  -76.6188 C.3       3 UNK         0.0250 
     58 CB        -78.9638   21.8640  -76.9020 C.3       3 UNK        -0.1996 
     59 N         -80.3944   23.4452  -75.6449 N.am      3 UNK        -0.4254 
     60 C         -81.6840   23.1538  -75.8374 C.2       2 UNK         0.5004 
     61 O         -82.1329   22.6565  -76.8704 O.2       2 UNK        -0.5226 
     62 CA        -82.6507   23.5211  -74.6932 C.3       2 UNK         0.0269 
     63 CB        -82.6569   22.4428  -73.5913 C.3       2 UNK        -0.1926 
     64 N         -82.4238   24.8705  -74.1464 N.am      2 UNK        -0.4687 
     65 C         -81.3688   25.3315  -73.4539 C.2       1 UNK         0.5165 
     66 O         -80.4369   24.6198  -73.0751 O.2       1 UNK        -0.5079 
     67 H67       -80.6538   28.8267  -77.3143 H         1 UNK         0.0900 
     68 H68       -82.3111   28.7284  -76.7147 H         1 UNK         0.0900 
     69 H69       -81.6516   27.4256  -77.7082 H         1 UNK         0.0900 
     70 H70       -82.4476   28.0961  -74.5638 H         1 UNK         0.2959 
     71 H71       -80.2288   27.0910  -73.1080 H         1 UNK         0.1079 
     72 H72       -82.3879   28.4532  -72.3264 H         1 UNK         0.0837 
     73 H73       -83.1220   26.9073  -72.1176 H         1 UNK         0.0837 
     74 H74       -79.6156   26.0065  -71.1288 H         1 UNK         0.0685 
     75 H75       -79.5155   26.4855  -69.4714 H         1 UNK         0.0685 
     76 H76       -80.0026   29.1604  -72.0496 H         1 UNK         0.1434 
     77 H77       -75.9655   30.5348  -71.7314 H         1 UNK         0.1329 
     78 H78       -77.1694   26.9758  -69.6740 H         1 UNK         0.1335 
     79 H79       -75.0595   28.2609  -69.0308 H         1 UNK         0.0680 
     80 H80       -74.5103   29.5529  -70.0737 H         1 UNK         0.0680 
     81 H81       -72.2781   28.1777  -69.6562 H         1 UNK         0.1032 
     82 H82       -71.7315   27.0402  -70.8573 H         1 UNK         0.1032 
     83 H83       -72.3979   29.9907  -71.2767 H         1 UNK         0.0461 
     84 H84       -69.8179   28.7075  -73.2459 H         1 UNK         0.3453 
     85 H85       -68.5190   29.2512  -72.2096 H         1 UNK         0.3453 
     86 H86       -72.6416   27.9685  -73.2277 H         1 UNK         0.2984 
     87 H87       -73.7416   29.5317  -75.4500 H         1 UNK         0.0554 
     88 H88       -72.1649   31.0929  -76.5103 H         1 UNK         0.0847 
     89 H89       -72.3285   29.6634  -77.5141 H         1 UNK         0.0847 
     90 H90       -70.8912   29.8831  -76.5142 H         1 UNK         0.0847 
     91 H91       -73.4730   27.3358  -75.5699 H         1 UNK         0.3141 
     92 H92       -70.7191   25.1321  -75.8835 H         1 UNK         0.0743 
     93 H93       -71.0613   25.2737  -73.4334 H         1 UNK         0.0784 
     94 H94       -72.8005   25.4058  -73.6460 H         1 UNK         0.0784 
     95 H95       -71.9636   23.9241  -74.1017 H         1 UNK         0.0784 
     96 H96       -73.7026   25.3059  -76.0023 H         1 UNK         0.3213 
     97 H97       -73.6385   24.0628  -79.3898 H         1 UNK         0.0855 
     98 H98       -74.7806   23.0688  -76.7241 H         1 UNK         0.0814 
     99 H99       -73.7041   22.1588  -77.7759 H         1 UNK         0.0814 
    100 H100      -75.3147   22.5861  -78.3311 H         1 UNK         0.0814 
    101 H101      -75.7984   25.0502  -77.8144 H         1 UNK         0.3105 
    102 H102      -75.9666   28.2293  -79.4852 H         1 UNK         0.0547 
    103 H103      -77.6218   25.6492  -79.4908 H         1 UNK         0.0837 
    104 H104      -78.2060   27.2575  -79.9096 H         1 UNK         0.0837 
    105 H105      -76.9937   26.4744  -80.9100 H         1 UNK         0.0837 
    106 H106      -77.2246   26.7008  -77.2644 H         1 UNK         0.3020 
    107 H107      -75.9723   28.7822  -74.8055 H         1 UNK         0.1245 
    108 H108      -78.7129   28.9813  -74.4743 H         1 UNK         0.0781 
    109 H109      -78.5791   29.5892  -76.0889 H         1 UNK         0.0781 
    110 H110      -78.0848   32.0596  -72.4320 H         1 UNK         0.0836 
    111 H111      -79.4173   31.1724  -73.1249 H         1 UNK         0.0836 
    112 H112      -78.0917   26.8195  -74.9254 H         1 UNK         0.3022 
    113 H113      -75.8367   24.0751  -74.4568 H         1 UNK         0.0747 
    114 H114      -75.9025   25.1509  -72.2007 H         1 UNK         0.0793 
    115 H115      -77.0356   23.8135  -72.3031 H         1 UNK         0.0793 
    116 H116      -77.6177   25.4758  -72.3975 H         1 UNK         0.0793 
    117 H117      -78.5578   23.9286  -74.1965 H         1 UNK         0.3047 
    118 H118      -79.6435   23.8088  -77.5462 H         1 UNK         0.0822 
    119 H119      -78.1255   21.7855  -77.5959 H         1 UNK         0.0807 
    120 H120      -79.8017   21.3332  -77.3535 H         1 UNK         0.0807 
    121 H121      -78.6843   21.3354  -75.9900 H         1 UNK         0.0807 
    122 H122      -80.1781   23.9049  -74.7660 H         1 UNK         0.2946 
    123 H123      -83.6507   23.5429  -75.1305 H         1 UNK         0.1144 
    124 H124      -82.9448   21.4741  -74.0016 H         1 UNK         0.0793 
    125 H125      -83.3700   22.6858  -72.8037 H         1 UNK         0.0793 
    126 H126      -81.6774   22.3165  -73.1297 H         1 UNK         0.0793 
    127 H127      -83.0949   25.5620  -74.4519 H         1 UNK         0.2896 
@<TRIPOS>BOND
     1    1    2 1    
     2    1   67 1    
     3    1   68 1    
     4    1   69 1    
     5    2    3 2    
     6    2    4 am   BACKBONE|DICT|INTERRES
     7    4    5 1    
     8    4   70 1    
     9    5    6 1    
    10    5   65 1    
    11    5   71 1    
    12    6    7 1    
    13    6   72 1    
    14    6   73 1    
    15    7    8 1    
    16    8    9 1    
    17    8   74 1    
    18    8   75 1    
    19    9   10 ar   
    20    9   14 ar   
    21   10   11 ar   
    22   10   76 1    
    23   11   12 ar   
    24   11   48 1    
    25   12   13 ar   
    26   12   77 1    
    27   13   14 ar   
    28   13   15 1    
    29   14   78 1    
    30   15   16 1    
    31   15   79 1    
    32   15   80 1    
    33   16   17 1    
    34   17   18 1    
    35   17   81 1    
    36   17   82 1    
    37   18   19 1    
    38   18   22 1    
    39   18   83 1    
    40   19   20 am   BACKBONE|DICT|INTERRES
    41   19   21 2    
    42   20   84 1    
    43   20   85 1    
    44   22   23 am   BACKBONE|DICT|INTERRES
    45   22   86 1    
    46   23   24 2    
    47   23   25 1    
    48   25   26 1    
    49   25   27 1    
    50   25   87 1    
    51   26   88 1    
    52   26   89 1    
    53   26   90 1    
    54   27   28 am   BACKBONE|DICT|INTERRES
    55   27   91 1    
    56   28   29 2    
    57   28   30 1    
    58   30   31 1    
    59   30   32 1    
    60   30   92 1    
    61   31   93 1    
    62   31   94 1    
    63   31   95 1    
    64   32   33 am   BACKBONE|DICT|INTERRES
    65   32   96 1    
    66   33   34 2    
    67   33   35 1    
    68   35   36 1    
    69   35   37 1    
    70   35   97 1    
    71   36   98 1    
    72   36   99 1    
    73   36  100 1    
    74   37   38 am   BACKBONE|DICT|INTERRES
    75   37  101 1    
    76   38   39 2    
    77   38   40 1    
    78   40   41 1    
    79   40   42 1    
    80   40  102 1    
    81   41  103 1    
    82   41  104 1    
    83   41  105 1    
    84   42   43 am   BACKBONE|DICT|INTERRES
    85   42  106 1    
    86   43   44 2    
    87   43   45 1    
    88   45   46 1    
    89   45   49 1    
    90   45  107 1    
    91   46   47 1    
    92   46  108 1    
    93   46  109 1    
    94   47   48 1    
    95   48  110 1    
    96   48  111 1    
    97   49   50 am   BACKBONE|DICT|INTERRES
    98   49  112 1    
    99   50   51 2    
   100   50   52 1    
   101   52   53 1    
   102   52   54 1    
   103   52  113 1    
   104   53  114 1    
   105   53  115 1    
   106   53  116 1    
   107   54   55 am   BACKBONE|DICT|INTERRES
   108   54  117 1    
   109   55   56 2    
   110   55   57 1    
   111   57   58 1    
   112   57   59 1    
   113   57  118 1    
   114   58  119 1    
   115   58  120 1    
   116   58  121 1    
   117   59   60 am   BACKBONE|DICT|INTERRES
   118   59  122 1    
   119   60   61 2    
   120   60   62 1    
   121   62   63 1    
   122   62   64 1    
   123   62  123 1    
   124   63  124 1    
   125   63  125 1    
   126   63  126 1    
   127   64   65 am   BACKBONE|DICT|INTERRES
   128   64  127 1    
   129   65   66 2    
@<TRIPOS>SUBSTRUCTURE
     1 UNK         1 GROUP             0       ****    0 ROOT    
