@<TRIPOS>MOLECULE
3R135
127   129    1
SMALL
USER_CHARGES


@<TRIPOS>ATOM
      1 CA        -84.3200   26.4878  -71.3308 C.3       0 UNK        -0.1998 
      2 C         -83.0602   27.3466  -71.2630 C.2       0 UNK         0.4909 
      3 O         -82.5535   27.5918  -70.1705 O.2       0 UNK        -0.5240 
      4 N         -82.5151   27.8306  -72.3881 N.am      1 UNK        -0.4739 
      5 CA        -82.9560   27.5953  -73.7711 C.3       1 UNK         0.0864 
      6 C6        -82.4506   28.7137  -74.7209 C.3       11 UNK        -0.0881 
      7 S7        -80.6320   28.8006  -74.8661 S.3       11 UNK        -0.2682 
      8 C8        -80.2168   30.1323  -73.7029 C.3       11 UNK         0.0289 
      9 C9        -78.7990   29.9556  -73.1861 C.ar      11 UNK        -0.0687 
     10 C10       -78.5341   29.0016  -72.1981 C.ar      11 UNK        -0.0823 
     11 C11       -77.2361   28.8220  -71.7135 C.ar      11 UNK        -0.0830 
     12 C12       -76.2026   29.6176  -72.2141 C.ar      11 UNK        -0.1021 
     13 C13       -76.4527   30.5671  -73.2089 C.ar      11 UNK        -0.0753 
     14 C14       -77.7533   30.7328  -73.6940 C.ar      11 UNK        -0.0933 
     15 C15       -75.3044   31.3908  -73.7654 C.3       11 UNK         0.0166 
     16 S16       -74.3533   30.3954  -74.9490 S.3       11 UNK        -0.2615 
     17 C17       -72.6664   31.0742  -74.7887 C.3       11 UNK        -0.0865 
     18 CA        -71.7833   30.3377  -73.7415 C.3       10 UNK         0.0862 
     19 C         -72.0401   30.8538  -72.2932 C.2       10 UNK         0.5551 
     20 N         -72.4697   30.0225  -71.3513 N.am      10 UNK        -0.7319 
     21 O         -71.8363   32.0340  -72.0201 O.2       10 UNK        -0.5018 
     22 N         -71.8329   28.8740  -73.9070 N.am      10 UNK        -0.4509 
     23 C         -70.9357   28.0155  -73.4040 C.2       10 UNK         0.4899 
     24 O         -69.9080   28.3586  -72.8194 O.2       10 UNK        -0.4839 
     25 CA        -71.2401   26.5212  -73.5666 C.3       9 UNK         0.0222 
     26 CB        -72.2325   26.0571  -72.4895 C.3       9 UNK        -0.1966 
     27 N         -71.7740   26.2232  -74.8974 N.am      9 UNK        -0.4218 
     28 C         -71.0137   25.8312  -75.9296 C.2       9 UNK         0.5020 
     29 O         -69.7951   25.6610  -75.8609 O.2       9 UNK        -0.5274 
     30 CA        -71.7224   25.5728  -77.2683 C.3       8 UNK         0.0270 
     31 CB        -72.4269   24.2068  -77.2580 C.3       8 UNK        -0.1976 
     32 N         -72.6878   26.6078  -77.6298 N.am      8 UNK        -0.4313 
     33 C         -72.4109   27.8865  -77.9072 C.2       8 UNK         0.5041 
     34 O         -71.2764   28.3636  -77.8709 O.2       8 UNK        -0.5577 
     35 CA        -73.5900   28.7956  -78.3058 C.3       7 UNK         0.0284 
     36 CB        -73.8346   28.7486  -79.8265 C.3       7 UNK        -0.1958 
     37 N         -74.8326   28.5629  -77.5544 N.am      7 UNK        -0.4454 
     38 C         -75.6255   27.4846  -77.5350 C.2       7 UNK         0.5089 
     39 O         -75.4312   26.4705  -78.2079 O.2       7 UNK        -0.5125 
     40 CA        -76.8159   27.5376  -76.5640 C.3       6 UNK         0.0408 
     41 CB        -78.1302   27.3615  -77.3412 C.3       6 UNK        -0.1791 
     42 N         -76.7456   26.5187  -75.5133 N.am      6 UNK        -0.4762 
     43 C         -75.7049   26.2592  -74.7037 C.2       6 UNK         0.5007 
     44 O         -74.6078   26.8190  -74.7714 O.2       6 UNK        -0.5032 
     45 CA        -75.9195   25.1442  -73.6642 C.3       5 UNK         0.0783 
     46 C46       -76.7888   25.6087  -72.4667 C.3       11 UNK        -0.0857 
     47 S47       -75.8045   26.4841  -71.2055 S.3       11 UNK        -0.2512 
     48 C48       -76.9532   27.7802  -70.6398 C.3       11 UNK         0.0225 
     49 N         -76.4937   23.9668  -74.3160 N.am      5 UNK        -0.4615 
     50 C         -75.7840   22.9223  -74.7637 C.2       4 UNK         0.5053 
     51 O         -74.5656   22.8165  -74.6255 O.2       4 UNK        -0.5105 
     52 CA        -76.5508   21.7850  -75.4657 C.3       4 UNK         0.0263 
     53 CB        -76.7455   20.6005  -74.5050 C.3       4 UNK        -0.1981 
     54 N         -77.8571   22.1994  -75.9803 N.am      4 UNK        -0.4224 
     55 C         -78.0434   22.9580  -77.0696 C.2       3 UNK         0.4895 
     56 O         -77.1365   23.3045  -77.8250 O.2       3 UNK        -0.5091 
     57 CA        -79.4836   23.4231  -77.3584 C.3       3 UNK         0.0250 
     58 CB        -80.1366   22.5195  -78.4169 C.3       3 UNK        -0.1996 
     59 N         -80.3505   23.4845  -76.1739 N.am      3 UNK        -0.4254 
     60 C         -80.1486   24.2770  -75.1124 C.2       2 UNK         0.5004 
     61 O         -79.1711   25.0184  -74.9836 O.2       2 UNK        -0.5226 
     62 CA        -81.1683   24.1740  -73.9706 C.3       2 UNK         0.0269 
     63 CB        -80.5266   23.5183  -72.7365 C.3       2 UNK        -0.1926 
     64 N         -81.6634   25.4986  -73.6051 N.am      2 UNK        -0.4687 
     65 C         -82.5893   26.1846  -74.2907 C.2       1 UNK         0.5165 
     66 O         -83.1676   25.7377  -75.2822 O.2       1 UNK        -0.5079 
     67 H67       -85.1351   27.0249  -71.8144 H         1 UNK         0.0900 
     68 H68       -84.6528   26.2227  -70.3274 H         1 UNK         0.0900 
     69 H69       -84.1355   25.5603  -71.8711 H         1 UNK         0.0900 
     70 H70       -81.6862   28.3992  -72.3068 H         1 UNK         0.2959 
     71 H71       -84.0462   27.6461  -73.7897 H         1 UNK         0.1079 
     72 H72       -82.8602   28.5669  -75.7223 H         1 UNK         0.0837 
     73 H73       -82.8337   29.6818  -74.3940 H         1 UNK         0.0837 
     74 H74       -80.3345   31.0953  -74.2021 H         1 UNK         0.0685 
     75 H75       -80.9095   30.1355  -72.8608 H         1 UNK         0.0685 
     76 H76       -79.3402   28.3929  -71.8128 H         1 UNK         0.1434 
     77 H77       -75.1957   29.4810  -71.8454 H         1 UNK         0.1329 
     78 H78       -77.9501   31.4609  -74.4689 H         1 UNK         0.1335 
     79 H79       -75.6702   32.2911  -74.2612 H         1 UNK         0.0680 
     80 H80       -74.6710   31.7253  -72.9441 H         1 UNK         0.0680 
     81 H81       -72.7129   32.1480  -74.5957 H         1 UNK         0.1032 
     82 H82       -72.1939   30.9823  -75.7678 H         1 UNK         0.1032 
     83 H83       -70.7536   30.6313  -73.9549 H         1 UNK         0.0461 
     84 H84       -72.6207   30.3702  -70.4178 H         1 UNK         0.3453 
     85 H85       -72.6258   29.0513  -71.5627 H         1 UNK         0.3453 
     86 H86       -72.6689   28.5143  -74.3473 H         1 UNK         0.2984 
     87 H87       -70.3104   25.9701  -73.4093 H         1 UNK         0.0554 
     88 H88       -73.1688   26.6119  -72.5368 H         1 UNK         0.0847 
     89 H89       -71.8199   26.2041  -71.4905 H         1 UNK         0.0847 
     90 H90       -72.4631   24.9966  -72.5915 H         1 UNK         0.0847 
     91 H91       -72.7726   26.3632  -75.0353 H         1 UNK         0.3141 
     92 H92       -70.9568   25.5536  -78.0468 H         1 UNK         0.0743 
     93 H93       -73.2538   24.1876  -76.5474 H         1 UNK         0.0784 
     94 H94       -72.8276   23.9595  -78.2412 H         1 UNK         0.0784 
     95 H95       -71.7363   23.4098  -76.9787 H         1 UNK         0.0784 
     96 H96       -73.6604   26.3230  -77.7292 H         1 UNK         0.3213 
     97 H97       -73.2882   29.8141  -78.0557 H         1 UNK         0.0855 
     98 H98       -72.9310   29.0220  -80.3729 H         1 UNK         0.0814 
     99 H99       -74.6167   29.4470  -80.1240 H         1 UNK         0.0814 
    100 H100      -74.1265   27.7538  -80.1639 H         1 UNK         0.0814 
    101 H101      -75.0462   29.2904  -76.8820 H         1 UNK         0.3105 
    102 H102      -76.8372   28.5087  -76.0650 H         1 UNK         0.0547 
    103 H103      -78.2845   28.1854  -78.0387 H         1 UNK         0.0837 
    104 H104      -78.1314   26.4381  -77.9209 H         1 UNK         0.0837 
    105 H105      -78.9908   27.3305  -76.6758 H         1 UNK         0.0837 
    106 H106      -77.6007   25.9883  -75.3653 H         1 UNK         0.3020 
    107 H107      -74.9340   24.8760  -73.2771 H         1 UNK         0.1245 
    108 H108      -77.2264   24.7435  -71.9664 H         1 UNK         0.0781 
    109 H109      -77.6338   26.2171  -72.7949 H         1 UNK         0.0781 
    110 H110      -76.5188   28.2787  -69.7723 H         1 UNK         0.0836 
    111 H111      -77.8754   27.3114  -70.2926 H         1 UNK         0.0836 
    112 H112      -77.4853   24.0159  -74.5193 H         1 UNK         0.3022 
    113 H113      -75.9392   21.4478  -76.3055 H         1 UNK         0.0747 
    114 H114      -77.2266   19.7590  -75.0039 H         1 UNK         0.0793 
    115 H115      -75.7864   20.2442  -74.1261 H         1 UNK         0.0793 
    116 H116      -77.3544   20.8746  -73.6424 H         1 UNK         0.0793 
    117 H117      -78.6661   21.9388  -75.4360 H         1 UNK         0.3047 
    118 H118      -79.4193   24.4331  -77.7671 H         1 UNK         0.0822 
    119 H119      -81.1190   22.8926  -78.7071 H         1 UNK         0.0807 
    120 H120      -80.2567   21.4967  -78.0574 H         1 UNK         0.0807 
    121 H121      -79.5293   22.4771  -79.3223 H         1 UNK         0.0807 
    122 H122      -81.1742   22.8998  -76.1942 H         1 UNK         0.2946 
    123 H123      -82.0123   23.5580  -74.2900 H         1 UNK         0.1144 
    124 H124      -80.1546   22.5201  -72.9710 H         1 UNK         0.0793 
    125 H125      -81.2475   23.4114  -71.9257 H         1 UNK         0.0793 
    126 H126      -79.6846   24.1002  -72.3597 H         1 UNK         0.0793 
    127 H127      -81.2052   25.9596  -72.8330 H         1 UNK         0.2896 
@<TRIPOS>BOND
     1    1    2 1    
     2    1   67 1    
     3    1   68 1    
     4    1   69 1    
     5    2    3 2    
     6    2    4 am   BACKBONE|DICT|INTERRES
     7    4    5 1    
     8    4   70 1    
     9    5    6 1    
    10    5   65 1    
    11    5   71 1    
    12    6    7 1    
    13    6   72 1    
    14    6   73 1    
    15    7    8 1    
    16    8    9 1    
    17    8   74 1    
    18    8   75 1    
    19    9   10 ar   
    20    9   14 ar   
    21   10   11 ar   
    22   10   76 1    
    23   11   12 ar   
    24   11   48 1    
    25   12   13 ar   
    26   12   77 1    
    27   13   14 ar   
    28   13   15 1    
    29   14   78 1    
    30   15   16 1    
    31   15   79 1    
    32   15   80 1    
    33   16   17 1    
    34   17   18 1    
    35   17   81 1    
    36   17   82 1    
    37   18   19 1    
    38   18   22 1    
    39   18   83 1    
    40   19   20 am   BACKBONE|DICT|INTERRES
    41   19   21 2    
    42   20   84 1    
    43   20   85 1    
    44   22   23 am   BACKBONE|DICT|INTERRES
    45   22   86 1    
    46   23   24 2    
    47   23   25 1    
    48   25   26 1    
    49   25   27 1    
    50   25   87 1    
    51   26   88 1    
    52   26   89 1    
    53   26   90 1    
    54   27   28 am   BACKBONE|DICT|INTERRES
    55   27   91 1    
    56   28   29 2    
    57   28   30 1    
    58   30   31 1    
    59   30   32 1    
    60   30   92 1    
    61   31   93 1    
    62   31   94 1    
    63   31   95 1    
    64   32   33 am   BACKBONE|DICT|INTERRES
    65   32   96 1    
    66   33   34 2    
    67   33   35 1    
    68   35   36 1    
    69   35   37 1    
    70   35   97 1    
    71   36   98 1    
    72   36   99 1    
    73   36  100 1    
    74   37   38 am   BACKBONE|DICT|INTERRES
    75   37  101 1    
    76   38   39 2    
    77   38   40 1    
    78   40   41 1    
    79   40   42 1    
    80   40  102 1    
    81   41  103 1    
    82   41  104 1    
    83   41  105 1    
    84   42   43 am   BACKBONE|DICT|INTERRES
    85   42  106 1    
    86   43   44 2    
    87   43   45 1    
    88   45   46 1    
    89   45   49 1    
    90   45  107 1    
    91   46   47 1    
    92   46  108 1    
    93   46  109 1    
    94   47   48 1    
    95   48  110 1    
    96   48  111 1    
    97   49   50 am   BACKBONE|DICT|INTERRES
    98   49  112 1    
    99   50   51 2    
   100   50   52 1    
   101   52   53 1    
   102   52   54 1    
   103   52  113 1    
   104   53  114 1    
   105   53  115 1    
   106   53  116 1    
   107   54   55 am   BACKBONE|DICT|INTERRES
   108   54  117 1    
   109   55   56 2    
   110   55   57 1    
   111   57   58 1    
   112   57   59 1    
   113   57  118 1    
   114   58  119 1    
   115   58  120 1    
   116   58  121 1    
   117   59   60 am   BACKBONE|DICT|INTERRES
   118   59  122 1    
   119   60   61 2    
   120   60   62 1    
   121   62   63 1    
   122   62   64 1    
   123   62  123 1    
   124   63  124 1    
   125   63  125 1    
   126   63  126 1    
   127   64   65 am   BACKBONE|DICT|INTERRES
   128   64  127 1    
   129   65   66 2    
@<TRIPOS>SUBSTRUCTURE
     1 UNK         1 GROUP             0       ****    0 ROOT    
