@<TRIPOS>MOLECULE
3R135
127   129    1
SMALL
USER_CHARGES


@<TRIPOS>ATOM
      1 CA        -82.7488   23.1787  -70.9041 C.3       0 UNK        -0.1998 
      2 C         -81.3138   23.3762  -70.4199 C.2       0 UNK         0.4909 
      3 O         -80.7948   22.5150  -69.7117 O.2       0 UNK        -0.5240 
      4 N         -80.6354   24.4849  -70.7507 N.am      1 UNK        -0.4739 
      5 CA        -81.0746   25.5651  -71.6442 C.3       1 UNK         0.0864 
      6 C6        -80.1864   26.8213  -71.4630 C.3       11 UNK        -0.0881 
      7 S7        -81.0797   28.3777  -71.7854 S.3       11 UNK        -0.2682 
      8 C8        -79.9489   29.5868  -71.0230 C.3       11 UNK         0.0289 
      9 C9        -78.6211   29.6473  -71.7629 C.ar      11 UNK        -0.0687 
     10 C10       -78.4950   30.4378  -72.9105 C.ar      11 UNK        -0.0823 
     11 C11       -77.2958   30.4551  -73.6283 C.ar      11 UNK        -0.0830 
     12 C12       -76.2166   29.6959  -73.1706 C.ar      11 UNK        -0.1021 
     13 C13       -76.3292   28.8956  -72.0335 C.ar      11 UNK        -0.0753 
     14 C14       -77.5314   28.8864  -71.3222 C.ar      11 UNK        -0.0933 
     15 C15       -75.1744   27.9893  -71.6302 C.3       11 UNK         0.0166 
     16 S16       -74.1017   28.6873  -70.3309 S.3       11 UNK        -0.2615 
     17 C17       -73.5620   30.3101  -70.9883 C.3       11 UNK        -0.0865 
     18 CA        -72.3483   30.2873  -71.9592 C.3       10 UNK         0.0862 
     19 C         -71.0326   29.7682  -71.3073 C.2       10 UNK         0.5551 
     20 N         -70.2924   28.8551  -71.9273 N.am      10 UNK        -0.7319 
     21 O         -70.6620   30.2211  -70.2269 O.2       10 UNK        -0.5018 
     22 N         -72.6899   29.6262  -73.2250 N.am      10 UNK        -0.4509 
     23 C         -72.3555   30.0561  -74.4472 C.2       10 UNK         0.4899 
     24 O         -71.7481   31.1055  -74.6640 O.2       10 UNK        -0.4839 
     25 CA        -72.7915   29.1588  -75.6247 C.3       9 UNK         0.0222 
     26 CB        -71.9710   29.4126  -76.9058 C.3       9 UNK        -0.1966 
     27 N         -72.8099   27.7236  -75.3102 N.am      9 UNK        -0.4218 
     28 C         -71.7882   26.9733  -74.8677 C.2       9 UNK         0.5020 
     29 O         -70.6818   27.4219  -74.5653 O.2       9 UNK        -0.5274 
     30 CA        -72.0468   25.4674  -74.7296 C.3       8 UNK         0.0270 
     31 CB        -72.6700   25.1435  -73.3605 C.3       8 UNK        -0.1976 
     32 N         -72.9160   24.9737  -75.8028 N.am      8 UNK        -0.4313 
     33 C         -72.4722   24.3710  -76.9134 C.2       8 UNK         0.5041 
     34 O         -71.2822   24.1532  -77.1468 O.2       8 UNK        -0.5577 
     35 CA        -73.5259   23.9047  -77.9308 C.3       7 UNK         0.0284 
     36 CB        -74.2015   22.6058  -77.4604 C.3       7 UNK        -0.1958 
     37 N         -74.5493   24.9056  -78.2419 N.am      7 UNK        -0.4454 
     38 C         -74.3387   25.9930  -78.9988 C.2       7 UNK         0.5089 
     39 O         -73.2307   26.3420  -79.4058 O.2       7 UNK        -0.5125 
     40 CA        -75.5765   26.8131  -79.3981 C.3       6 UNK         0.0408 
     41 CB        -76.3926   26.0771  -80.4739 C.3       6 UNK        -0.1791 
     42 N         -76.4256   27.0787  -78.2387 N.am      6 UNK        -0.4762 
     43 C         -76.4040   28.2157  -77.5282 C.2       6 UNK         0.5007 
     44 O         -75.7530   29.2087  -77.8533 O.2       6 UNK        -0.5032 
     45 CA        -77.1857   28.2367  -76.1976 C.3       5 UNK         0.0783 
     46 C46       -78.5062   29.0467  -76.2677 C.3       11 UNK        -0.0857 
     47 S47       -78.3874   30.8728  -76.1980 S.3       11 UNK        -0.2512 
     48 C48       -77.1491   31.2686  -74.9106 C.3       11 UNK         0.0225 
     49 N         -77.4296   26.8970  -75.6562 N.am      5 UNK        -0.4615 
     50 C         -76.4782   26.0923  -75.1646 C.2       4 UNK         0.5053 
     51 O         -75.2948   26.4181  -75.0839 O.2       4 UNK        -0.5105 
     52 CA        -76.8838   24.6631  -74.7611 C.3       4 UNK         0.0263 
     53 CB        -77.0910   24.5686  -73.2435 C.3       4 UNK        -0.1981 
     54 N         -78.0737   24.1723  -75.4653 N.am      4 UNK        -0.4224 
     55 C         -78.1471   24.0220  -76.7981 C.2       3 UNK         0.4895 
     56 O         -77.1929   24.2176  -77.5522 O.2       3 UNK        -0.5091 
     57 CA        -79.5092   23.6597  -77.4143 C.3       3 UNK         0.0250 
     58 CB        -79.5784   22.1517  -77.7000 C.3       3 UNK        -0.1996 
     59 N         -80.6718   24.0558  -76.6135 N.am      3 UNK        -0.4254 
     60 C         -80.9640   25.2983  -76.2000 C.2       2 UNK         0.5004 
     61 O         -80.2603   26.2821  -76.4334 O.2       2 UNK        -0.5226 
     62 CA        -82.2316   25.4706  -75.3399 C.3       2 UNK         0.0269 
     63 CB        -83.2039   24.2701  -75.4087 C.3       2 UNK        -0.1926 
     64 N         -81.9235   25.7779  -73.9365 N.am      2 UNK        -0.4687 
     65 C         -81.1101   25.0960  -73.1164 C.2       1 UNK         0.5165 
     66 O         -80.4200   24.1356  -73.4720 O.2       1 UNK        -0.5079 
     67 H67       -82.7756   22.9988  -71.9783 H         1 UNK         0.0900 
     68 H68       -83.3714   24.0417  -70.6718 H         1 UNK         0.0900 
     69 H69       -83.1975   22.3142  -70.4152 H         1 UNK         0.0900 
     70 H70       -79.6814   24.5609  -70.4297 H         1 UNK         0.2959 
     71 H71       -82.0932   25.8266  -71.3518 H         1 UNK         0.1079 
     72 H72       -79.8232   26.8736  -70.4350 H         1 UNK         0.0837 
     73 H73       -79.2967   26.7846  -72.0924 H         1 UNK         0.0837 
     74 H74       -80.4219   30.5699  -71.0340 H         1 UNK         0.0685 
     75 H75       -79.7938   29.3347  -69.9728 H         1 UNK         0.0685 
     76 H76       -79.3395   31.0143  -73.2629 H         1 UNK         0.1434 
     77 H77       -75.2928   29.6994  -73.7274 H         1 UNK         0.1329 
     78 H78       -77.6278   28.2621  -70.4447 H         1 UNK         0.1335 
     79 H79       -75.5741   27.0406  -71.2690 H         1 UNK         0.0680 
     80 H80       -74.5734   27.7351  -72.5027 H         1 UNK         0.0680 
     81 H81       -73.3195   30.9370  -70.1283 H         1 UNK         0.1032 
     82 H82       -74.4055   30.8142  -71.4590 H         1 UNK         0.1032 
     83 H83       -72.1364   31.3347  -72.1815 H         1 UNK         0.0461 
     84 H84       -69.4404   28.5398  -71.4922 H         1 UNK         0.3453 
     85 H85       -70.5527   28.4939  -72.8381 H         1 UNK         0.3453 
     86 H86       -73.1355   28.7264  -73.1375 H         1 UNK         0.2984 
     87 H87       -73.8249   29.4322  -75.8398 H         1 UNK         0.0554 
     88 H88       -72.3246   28.7921  -77.7299 H         1 UNK         0.0847 
     89 H89       -70.9120   29.2005  -76.7553 H         1 UNK         0.0847 
     90 H90       -72.0544   30.4513  -77.2278 H         1 UNK         0.0847 
     91 H91       -73.7088   27.2599  -75.4267 H         1 UNK         0.3141 
     92 H92       -71.0780   24.9652  -74.7740 H         1 UNK         0.0743 
     93 H93       -73.6508   25.5995  -73.2331 H         1 UNK         0.0784 
     94 H94       -72.7849   24.0679  -73.2262 H         1 UNK         0.0784 
     95 H95       -72.0362   25.5043  -72.5490 H         1 UNK         0.0784 
     96 H96       -73.9053   25.1753  -75.7098 H         1 UNK         0.3213 
     97 H97       -72.9970   23.6786  -78.8597 H         1 UNK         0.0855 
     98 H98       -74.7731   22.7510  -76.5443 H         1 UNK         0.0814 
     99 H99       -73.4602   21.8304  -77.2622 H         1 UNK         0.0814 
    100 H100      -74.8817   22.2165  -78.2183 H         1 UNK         0.0814 
    101 H101      -75.5057   24.6730  -77.9787 H         1 UNK         0.3105 
    102 H102      -75.2291   27.7519  -79.8347 H         1 UNK         0.0547 
    103 H103      -75.7797   25.8677  -81.3516 H         1 UNK         0.0837 
    104 H104      -76.7824   25.1242  -80.1144 H         1 UNK         0.0837 
    105 H105      -77.2385   26.6785  -80.8069 H         1 UNK         0.0837 
    106 H106      -76.9584   26.2942  -77.8824 H         1 UNK         0.3020 
    107 H107      -76.5064   28.7179  -75.5050 H         1 UNK         0.1245 
    108 H108      -79.1445   28.7679  -75.4269 H         1 UNK         0.0781 
    109 H109      -79.0756   28.7710  -77.1573 H         1 UNK         0.0781 
    110 H110      -77.2325   32.3277  -74.6634 H         1 UNK         0.0836 
    111 H111      -76.1548   31.1411  -75.3421 H         1 UNK         0.0836 
    112 H112      -78.3820   26.5536  -75.7382 H         1 UNK         0.3022 
    113 H113      -76.0537   24.0061  -75.0236 H         1 UNK         0.0747 
    114 H114      -77.3215   23.5483  -72.9364 H         1 UNK         0.0793 
    115 H115      -76.1926   24.8749  -72.7059 H         1 UNK         0.0793 
    116 H116      -77.9047   25.2090  -72.9100 H         1 UNK         0.0793 
    117 H117      -78.9077   24.0182  -74.9063 H         1 UNK         0.3047 
    118 H118      -79.5776   24.1918  -78.3653 H         1 UNK         0.0822 
    119 H119      -80.4891   21.8900  -78.2391 H         1 UNK         0.0807 
    120 H120      -79.5500   21.5651  -76.7807 H         1 UNK         0.0807 
    121 H121      -78.7369   21.8319  -78.3168 H         1 UNK         0.0807 
    122 H122      -81.2946   23.3124  -76.3326 H         1 UNK         0.2946 
    123 H123      -82.7503   26.3401  -75.7476 H         1 UNK         0.1144 
    124 H124      -83.4709   24.0342  -76.4400 H         1 UNK         0.0793 
    125 H125      -84.1340   24.4945  -74.8864 H         1 UNK         0.0793 
    126 H126      -82.7865   23.3701  -74.9554 H         1 UNK         0.0793 
    127 H127      -82.3856   26.5971  -73.5647 H         1 UNK         0.2896 
@<TRIPOS>BOND
     1    1    2 1    
     2    1   67 1    
     3    1   68 1    
     4    1   69 1    
     5    2    3 2    
     6    2    4 am   BACKBONE|DICT|INTERRES
     7    4    5 1    
     8    4   70 1    
     9    5    6 1    
    10    5   65 1    
    11    5   71 1    
    12    6    7 1    
    13    6   72 1    
    14    6   73 1    
    15    7    8 1    
    16    8    9 1    
    17    8   74 1    
    18    8   75 1    
    19    9   10 ar   
    20    9   14 ar   
    21   10   11 ar   
    22   10   76 1    
    23   11   12 ar   
    24   11   48 1    
    25   12   13 ar   
    26   12   77 1    
    27   13   14 ar   
    28   13   15 1    
    29   14   78 1    
    30   15   16 1    
    31   15   79 1    
    32   15   80 1    
    33   16   17 1    
    34   17   18 1    
    35   17   81 1    
    36   17   82 1    
    37   18   19 1    
    38   18   22 1    
    39   18   83 1    
    40   19   20 am   BACKBONE|DICT|INTERRES
    41   19   21 2    
    42   20   84 1    
    43   20   85 1    
    44   22   23 am   BACKBONE|DICT|INTERRES
    45   22   86 1    
    46   23   24 2    
    47   23   25 1    
    48   25   26 1    
    49   25   27 1    
    50   25   87 1    
    51   26   88 1    
    52   26   89 1    
    53   26   90 1    
    54   27   28 am   BACKBONE|DICT|INTERRES
    55   27   91 1    
    56   28   29 2    
    57   28   30 1    
    58   30   31 1    
    59   30   32 1    
    60   30   92 1    
    61   31   93 1    
    62   31   94 1    
    63   31   95 1    
    64   32   33 am   BACKBONE|DICT|INTERRES
    65   32   96 1    
    66   33   34 2    
    67   33   35 1    
    68   35   36 1    
    69   35   37 1    
    70   35   97 1    
    71   36   98 1    
    72   36   99 1    
    73   36  100 1    
    74   37   38 am   BACKBONE|DICT|INTERRES
    75   37  101 1    
    76   38   39 2    
    77   38   40 1    
    78   40   41 1    
    79   40   42 1    
    80   40  102 1    
    81   41  103 1    
    82   41  104 1    
    83   41  105 1    
    84   42   43 am   BACKBONE|DICT|INTERRES
    85   42  106 1    
    86   43   44 2    
    87   43   45 1    
    88   45   46 1    
    89   45   49 1    
    90   45  107 1    
    91   46   47 1    
    92   46  108 1    
    93   46  109 1    
    94   47   48 1    
    95   48  110 1    
    96   48  111 1    
    97   49   50 am   BACKBONE|DICT|INTERRES
    98   49  112 1    
    99   50   51 2    
   100   50   52 1    
   101   52   53 1    
   102   52   54 1    
   103   52  113 1    
   104   53  114 1    
   105   53  115 1    
   106   53  116 1    
   107   54   55 am   BACKBONE|DICT|INTERRES
   108   54  117 1    
   109   55   56 2    
   110   55   57 1    
   111   57   58 1    
   112   57   59 1    
   113   57  118 1    
   114   58  119 1    
   115   58  120 1    
   116   58  121 1    
   117   59   60 am   BACKBONE|DICT|INTERRES
   118   59  122 1    
   119   60   61 2    
   120   60   62 1    
   121   62   63 1    
   122   62   64 1    
   123   62  123 1    
   124   63  124 1    
   125   63  125 1    
   126   63  126 1    
   127   64   65 am   BACKBONE|DICT|INTERRES
   128   64  127 1    
   129   65   66 2    
@<TRIPOS>SUBSTRUCTURE
     1 UNK         1 GROUP             0       ****    0 ROOT    
