@<TRIPOS>MOLECULE
3R135
127   129    1
SMALL
USER_CHARGES


@<TRIPOS>ATOM
      1 CA        -83.9668   26.3518  -74.5478 C.3       0 UNK        -0.1998 
      2 C         -82.7601   27.1956  -74.9293 C.2       0 UNK         0.4909 
      3 O         -82.3212   27.1534  -76.0795 O.2       0 UNK        -0.5240 
      4 N         -82.2261   27.9687  -73.9746 N.am      1 UNK        -0.4739 
      5 CA        -81.0341   28.8064  -74.1420 C.3       1 UNK         0.0864 
      6 C6        -80.8661   29.8514  -73.0028 C.3       11 UNK        -0.0881 
      7 S7        -81.2804   29.3618  -71.2821 S.3       11 UNK        -0.2682 
      8 C8        -80.4382   27.7667  -70.9697 C.3       11 UNK         0.0289 
      9 C9        -78.9103   27.7887  -70.8570 C.ar      11 UNK        -0.0687 
     10 C10       -78.2608   26.5844  -70.5658 C.ar      11 UNK        -0.0823 
     11 C11       -76.8672   26.5205  -70.4532 C.ar      11 UNK        -0.0830 
     12 C12       -76.1130   27.6803  -70.6494 C.ar      11 UNK        -0.1021 
     13 C13       -76.7442   28.8954  -70.9258 C.ar      11 UNK        -0.0753 
     14 C14       -78.1380   28.9465  -71.0177 C.ar      11 UNK        -0.0933 
     15 C15       -75.9260   30.1601  -71.1226 C.3       11 UNK         0.0166 
     16 S16       -75.7071   30.4973  -72.8911 S.3       11 UNK        -0.2615 
     17 C17       -74.8257   32.0978  -72.8554 C.3       11 UNK        -0.0865 
     18 CA        -73.3383   31.9982  -73.2880 C.3       10 UNK         0.0862 
     19 C         -72.4265   31.4348  -72.1564 C.2       10 UNK         0.5551 
     20 N         -71.6451   30.3838  -72.3748 N.am      10 UNK        -0.7319 
     21 O         -72.4189   31.9768  -71.0539 O.2       10 UNK        -0.5018 
     22 N         -73.2147   31.3176  -74.5841 N.am      10 UNK        -0.4509 
     23 C         -72.2206   31.4756  -75.4638 C.2       10 UNK         0.4899 
     24 O         -71.3202   32.3074  -75.3400 O.2       10 UNK        -0.4839 
     25 CA        -72.2444   30.5233  -76.6789 C.3       9 UNK         0.0222 
     26 CB        -70.8917   30.4706  -77.4200 C.3       9 UNK        -0.1966 
     27 N         -72.7009   29.1635  -76.3455 N.am      9 UNK        -0.4218 
     28 C         -72.1698   28.3343  -75.4319 C.2       9 UNK         0.5020 
     29 O         -71.2147   28.6348  -74.7145 O.2       9 UNK        -0.5274 
     30 CA        -72.8217   26.9503  -75.2403 C.3       8 UNK         0.0270 
     31 CB        -73.5761   26.9055  -73.9011 C.3       8 UNK        -0.1976 
     32 N         -73.7266   26.5072  -76.3080 N.am      8 UNK        -0.4313 
     33 C         -73.3872   26.2816  -77.5843 C.2       8 UNK         0.5041 
     34 O         -72.2626   26.4799  -78.0467 O.2       8 UNK        -0.5577 
     35 CA        -74.5147   25.7313  -78.4734 C.3       7 UNK         0.0284 
     36 CB        -74.1378   25.6431  -79.9683 C.3       7 UNK        -0.1958 
     37 N         -75.0092   24.4491  -77.9582 N.am      7 UNK        -0.4454 
     38 C         -74.3498   23.2833  -77.8962 C.2       7 UNK         0.5089 
     39 O         -73.2080   23.1061  -78.3243 O.2       7 UNK        -0.5125 
     40 CA        -75.1210   22.1119  -77.2579 C.3       6 UNK         0.0408 
     41 CB        -74.2413   20.8633  -77.0330 C.3       6 UNK        -0.1791 
     42 N         -75.8297   22.4721  -76.0234 N.am      6 UNK        -0.4762 
     43 C         -75.2982   22.9187  -74.8719 C.2       6 UNK         0.5007 
     44 O         -74.1035   23.1799  -74.7287 O.2       6 UNK        -0.5032 
     45 CA        -76.2671   23.0560  -73.6770 C.3       5 UNK         0.0783 
     46 C46       -75.7705   24.0233  -72.5738 C.3       11 UNK        -0.0857 
     47 S47       -76.7122   23.7829  -71.0337 S.3       11 UNK        -0.2512 
     48 C48       -76.1761   25.2209  -70.0541 C.3       11 UNK         0.0225 
     49 N         -77.5968   23.4352  -74.1547 N.am      5 UNK        -0.4615 
     50 C         -78.6878   22.6611  -74.1302 C.2       4 UNK         0.5053 
     51 O         -78.7125   21.5207  -73.6676 O.2       4 UNK        -0.5105 
     52 CA        -79.9659   23.2455  -74.7575 C.3       4 UNK         0.0263 
     53 CB        -80.9127   23.7595  -73.6609 C.3       4 UNK        -0.1981 
     54 N         -79.6892   24.3198  -75.7187 N.am      4 UNK        -0.4224 
     55 C         -79.1131   24.1252  -76.9164 C.2       3 UNK         0.4895 
     56 O         -78.7949   23.0161  -77.3459 O.2       3 UNK        -0.5091 
     57 CA        -78.7890   25.3660  -77.7662 C.3       3 UNK         0.0250 
     58 CB        -79.9346   25.6565  -78.7478 C.3       3 UNK        -0.1996 
     59 N         -78.5158   26.5661  -76.9748 N.am      3 UNK        -0.4254 
     60 C         -77.4874   26.7281  -76.1301 C.2       2 UNK         0.5004 
     61 O         -76.6042   25.8887  -75.9491 O.2       2 UNK        -0.5226 
     62 CA        -77.4418   28.0487  -75.3441 C.3       2 UNK         0.0269 
     63 CB        -76.6164   29.0804  -76.1306 C.3       2 UNK        -0.1926 
     64 N         -78.7600   28.6200  -75.0378 N.am      2 UNK        -0.4687 
     65 C         -79.7508   27.9856  -74.3924 C.2       1 UNK         0.5165 
     66 O         -79.6808   26.8097  -74.0298 O.2       1 UNK        -0.5079 
     67 H67       -84.8694   26.7660  -74.9961 H         1 UNK         0.0900 
     68 H68       -84.1081   26.3109  -73.4679 H         1 UNK         0.0900 
     69 H69       -83.8449   25.3321  -74.9115 H         1 UNK         0.0900 
     70 H70       -82.6153   27.9600  -73.0426 H         1 UNK         0.2959 
     71 H71       -81.1967   29.3716  -75.0630 H         1 UNK         0.1079 
     72 H72       -79.8694   30.2945  -73.0193 H         1 UNK         0.0837 
     73 H73       -81.5293   30.6886  -73.2260 H         1 UNK         0.0837 
     74 H74       -80.8293   27.3869  -70.0248 H         1 UNK         0.0685 
     75 H75       -80.7432   27.0394  -71.7207 H         1 UNK         0.0685 
     76 H76       -78.8469   25.6877  -70.4167 H         1 UNK         0.1434 
     77 H77       -75.0351   27.6448  -70.5672 H         1 UNK         0.1329 
     78 H78       -78.6041   29.8987  -71.2172 H         1 UNK         0.1335 
     79 H79       -74.9488   30.0674  -70.6458 H         1 UNK         0.0680 
     80 H80       -76.4291   31.0034  -70.6469 H         1 UNK         0.0680 
     81 H81       -74.9214   32.5640  -71.8729 H         1 UNK         0.1032 
     82 H82       -75.3486   32.7686  -73.5387 H         1 UNK         0.1032 
     83 H83       -72.9926   33.0234  -73.4341 H         1 UNK         0.0461 
     84 H84       -71.6081   29.9272  -73.2800 H         1 UNK         0.3453 
     85 H85       -71.0616   30.0472  -71.6263 H         1 UNK         0.3453 
     86 H86       -73.9023   30.5987  -74.7533 H         1 UNK         0.2984 
     87 H87       -72.9828   30.9330  -77.3696 H         1 UNK         0.0554 
     88 H88       -70.9379   29.8063  -78.2830 H         1 UNK         0.0847 
     89 H89       -70.0891   30.1195  -76.7705 H         1 UNK         0.0847 
     90 H90       -70.6056   31.4572  -77.7866 H         1 UNK         0.0847 
     91 H91       -73.4744   28.8139  -76.8910 H         1 UNK         0.3141 
     92 H92       -72.0047   26.2276  -75.1921 H         1 UNK         0.0743 
     93 H93       -74.4727   27.5261  -73.9146 H         1 UNK         0.0784 
     94 H94       -73.8692   25.8854  -73.6617 H         1 UNK         0.0784 
     95 H95       -72.9503   27.2560  -73.0789 H         1 UNK         0.0784 
     96 H96       -74.6730   26.2632  -76.0280 H         1 UNK         0.3213 
     97 H97       -75.3437   26.4364  -78.3967 H         1 UNK         0.0855 
     98 H98       -73.8810   26.6281  -80.3598 H         1 UNK         0.0814 
     99 H99       -74.9670   25.2628  -80.5647 H         1 UNK         0.0814 
    100 H100      -73.2767   24.9968  -80.1393 H         1 UNK         0.0814 
    101 H101      -75.8949   24.4980  -77.4698 H         1 UNK         0.3105 
    102 H102      -75.8946   21.8378  -77.9770 H         1 UNK         0.0547 
    103 H103      -73.8120   20.5128  -77.9724 H         1 UNK         0.0837 
    104 H104      -73.4124   21.0685  -76.3548 H         1 UNK         0.0837 
    105 H105      -74.8198   20.0388  -76.6167 H         1 UNK         0.0837 
    106 H106      -76.8314   22.3285  -76.0468 H         1 UNK         0.3020 
    107 H107      -76.3009   22.0545  -73.2418 H         1 UNK         0.1245 
    108 H108      -75.8722   25.0602  -72.8981 H         1 UNK         0.0781 
    109 H109      -74.7169   23.8613  -72.3394 H         1 UNK         0.0781 
    110 H110      -75.0911   25.3142  -70.1237 H         1 UNK         0.0836 
    111 H111      -76.3982   25.0252  -69.0043 H         1 UNK         0.0836 
    112 H112      -77.6600   24.3513  -74.5795 H         1 UNK         0.3022 
    113 H113      -80.4707   22.4375  -75.2914 H         1 UNK         0.0747 
    114 H114      -81.8222   24.1820  -74.0857 H         1 UNK         0.0793 
    115 H115      -81.2116   22.9484  -72.9957 H         1 UNK         0.0793 
    116 H116      -80.4407   24.5243  -73.0434 H         1 UNK         0.0793 
    117 H117      -79.8676   25.2672  -75.3997 H         1 UNK         0.3047 
    118 H118      -77.8936   25.1401  -78.3485 H         1 UNK         0.0822 
    119 H119      -79.6844   26.4783  -79.4191 H         1 UNK         0.0807 
    120 H120      -80.8567   25.9170  -78.2259 H         1 UNK         0.0807 
    121 H121      -80.1468   24.7856  -79.3698 H         1 UNK         0.0807 
    122 H122      -79.1929   27.3126  -77.0405 H         1 UNK         0.2946 
    123 H123      -76.9475   27.8480  -74.3904 H         1 UNK         0.1144 
    124 H124      -76.5658   30.0377  -75.6137 H         1 UNK         0.0793 
    125 H125      -77.0366   29.2646  -77.1203 H         1 UNK         0.0793 
    126 H126      -75.5934   28.7344  -76.2699 H         1 UNK         0.0793 
    127 H127      -78.8965   29.5838  -75.3071 H         1 UNK         0.2896 
@<TRIPOS>BOND
     1    1    2 1    
     2    1   67 1    
     3    1   68 1    
     4    1   69 1    
     5    2    3 2    
     6    2    4 am   BACKBONE|DICT|INTERRES
     7    4    5 1    
     8    4   70 1    
     9    5    6 1    
    10    5   65 1    
    11    5   71 1    
    12    6    7 1    
    13    6   72 1    
    14    6   73 1    
    15    7    8 1    
    16    8    9 1    
    17    8   74 1    
    18    8   75 1    
    19    9   10 ar   
    20    9   14 ar   
    21   10   11 ar   
    22   10   76 1    
    23   11   12 ar   
    24   11   48 1    
    25   12   13 ar   
    26   12   77 1    
    27   13   14 ar   
    28   13   15 1    
    29   14   78 1    
    30   15   16 1    
    31   15   79 1    
    32   15   80 1    
    33   16   17 1    
    34   17   18 1    
    35   17   81 1    
    36   17   82 1    
    37   18   19 1    
    38   18   22 1    
    39   18   83 1    
    40   19   20 am   BACKBONE|DICT|INTERRES
    41   19   21 2    
    42   20   84 1    
    43   20   85 1    
    44   22   23 am   BACKBONE|DICT|INTERRES
    45   22   86 1    
    46   23   24 2    
    47   23   25 1    
    48   25   26 1    
    49   25   27 1    
    50   25   87 1    
    51   26   88 1    
    52   26   89 1    
    53   26   90 1    
    54   27   28 am   BACKBONE|DICT|INTERRES
    55   27   91 1    
    56   28   29 2    
    57   28   30 1    
    58   30   31 1    
    59   30   32 1    
    60   30   92 1    
    61   31   93 1    
    62   31   94 1    
    63   31   95 1    
    64   32   33 am   BACKBONE|DICT|INTERRES
    65   32   96 1    
    66   33   34 2    
    67   33   35 1    
    68   35   36 1    
    69   35   37 1    
    70   35   97 1    
    71   36   98 1    
    72   36   99 1    
    73   36  100 1    
    74   37   38 am   BACKBONE|DICT|INTERRES
    75   37  101 1    
    76   38   39 2    
    77   38   40 1    
    78   40   41 1    
    79   40   42 1    
    80   40  102 1    
    81   41  103 1    
    82   41  104 1    
    83   41  105 1    
    84   42   43 am   BACKBONE|DICT|INTERRES
    85   42  106 1    
    86   43   44 2    
    87   43   45 1    
    88   45   46 1    
    89   45   49 1    
    90   45  107 1    
    91   46   47 1    
    92   46  108 1    
    93   46  109 1    
    94   47   48 1    
    95   48  110 1    
    96   48  111 1    
    97   49   50 am   BACKBONE|DICT|INTERRES
    98   49  112 1    
    99   50   51 2    
   100   50   52 1    
   101   52   53 1    
   102   52   54 1    
   103   52  113 1    
   104   53  114 1    
   105   53  115 1    
   106   53  116 1    
   107   54   55 am   BACKBONE|DICT|INTERRES
   108   54  117 1    
   109   55   56 2    
   110   55   57 1    
   111   57   58 1    
   112   57   59 1    
   113   57  118 1    
   114   58  119 1    
   115   58  120 1    
   116   58  121 1    
   117   59   60 am   BACKBONE|DICT|INTERRES
   118   59  122 1    
   119   60   61 2    
   120   60   62 1    
   121   62   63 1    
   122   62   64 1    
   123   62  123 1    
   124   63  124 1    
   125   63  125 1    
   126   63  126 1    
   127   64   65 am   BACKBONE|DICT|INTERRES
   128   64  127 1    
   129   65   66 2    
@<TRIPOS>SUBSTRUCTURE
     1 UNK         1 GROUP             0       ****    0 ROOT    
