@<TRIPOS>MOLECULE
3R135
127   129    1
SMALL
USER_CHARGES


@<TRIPOS>ATOM
      1 CA        -85.7368   29.7038  -76.0746 C.3       0 UNK        -0.1998 
      2 C         -84.2371   29.4543  -76.1321 C.2       0 UNK         0.4909 
      3 O         -83.6141   29.7110  -77.1626 O.2       0 UNK        -0.5240 
      4 N         -83.6540   28.9614  -75.0306 N.am      1 UNK        -0.4739 
      5 CA        -82.2305   28.6212  -74.9120 C.3       1 UNK         0.0864 
      6 C6        -81.8427   28.4012  -73.4275 C.3       11 UNK        -0.0881 
      7 S7        -80.0437   28.3877  -73.1381 S.3       11 UNK        -0.2682 
      8 C8        -79.9941   28.7583  -71.3574 C.3       11 UNK         0.0289 
      9 C9        -78.6045   28.5097  -70.7952 C.ar      11 UNK        -0.0687 
     10 C10       -78.2157   27.2103  -70.4621 C.ar      11 UNK        -0.0823 
     11 C11       -76.9256   26.9533  -69.9914 C.ar      11 UNK        -0.0830 
     12 C12       -76.0298   28.0140  -69.8253 C.ar      11 UNK        -0.1021 
     13 C13       -76.4038   29.3189  -70.1628 C.ar      11 UNK        -0.0753 
     14 C14       -77.6987   29.5625  -70.6350 C.ar      11 UNK        -0.0933 
     15 C15       -75.3948   30.4544  -70.0350 C.3       11 UNK         0.0166 
     16 S16       -75.1604   31.3889  -71.5861 S.3       11 UNK        -0.2615 
     17 C17       -74.6165   30.1029  -72.7643 C.3       11 UNK        -0.0865 
     18 CA        -73.0872   30.1305  -73.0266 C.3       10 UNK         0.0862 
     19 C         -72.3098   29.2788  -71.9913 C.2       10 UNK         0.5551 
     20 N         -71.7120   29.9092  -70.9898 N.am      10 UNK        -0.7319 
     21 O         -72.2728   28.0528  -72.0690 O.2       10 UNK        -0.5018 
     22 N         -72.7897   29.6766  -74.3900 N.am      10 UNK        -0.4509 
     23 C         -71.9216   30.2605  -75.2244 C.2       10 UNK         0.4899 
     24 O         -71.2694   31.2678  -74.9433 O.2       10 UNK        -0.4839 
     25 CA        -71.7825   29.6185  -76.6181 C.3       9 UNK         0.0222 
     26 CB        -70.6620   30.2466  -77.4750 C.3       9 UNK        -0.1966 
     27 N         -71.6516   28.1604  -76.5574 N.am      9 UNK        -0.4218 
     28 C         -70.6566   27.4404  -76.0154 C.2       9 UNK         0.5020 
     29 O         -69.6475   27.9326  -75.5086 O.2       9 UNK        -0.5274 
     30 CA        -70.8048   25.9042  -76.0293 C.3       8 UNK         0.0270 
     31 CB        -70.9301   25.3639  -74.5945 C.3       8 UNK        -0.1976 
     32 N         -71.9498   25.4377  -76.8191 N.am      8 UNK        -0.4313 
     33 C         -71.9810   25.3579  -78.1570 C.2       8 UNK         0.5041 
     34 O         -71.0099   25.5835  -78.8792 O.2       8 UNK        -0.5577 
     35 CA        -73.3339   25.0047  -78.7991 C.3       7 UNK         0.0284 
     36 CB        -73.4468   23.4901  -79.0358 C.3       7 UNK        -0.1958 
     37 N         -74.4682   25.4687  -77.9925 N.am      7 UNK        -0.4454 
     38 C         -74.8646   26.7492  -77.9196 C.2       7 UNK         0.5089 
     39 O         -74.3428   27.6607  -78.5609 O.2       7 UNK        -0.5125 
     40 CA        -75.9927   27.0837  -76.9263 C.3       6 UNK         0.0408 
     41 CB        -77.3652   26.9241  -77.5954 C.3       6 UNK        -0.1791 
     42 N         -75.9380   26.2708  -75.7082 N.am      6 UNK        -0.4762 
     43 C         -74.9331   26.3207  -74.8182 C.2       6 UNK         0.5007 
     44 O         -74.0091   27.1289  -74.9029 O.2       6 UNK        -0.5032 
     45 CA        -74.9176   25.2899  -73.6662 C.3       5 UNK         0.0783 
     46 C46       -75.4175   25.9589  -72.3719 C.3       11 UNK        -0.0857 
     47 S47       -75.1939   24.9229  -70.8838 S.3       11 UNK        -0.2512 
     48 C48       -76.4860   25.5175  -69.7295 C.3       11 UNK         0.0225 
     49 N         -75.6734   24.0709  -73.9599 N.am      5 UNK        -0.4615 
     50 C         -75.4773   23.2459  -74.9955 C.2       4 UNK         0.5053 
     51 O         -74.5484   23.3664  -75.7943 O.2       4 UNK        -0.5105 
     52 CA        -76.5374   22.1497  -75.2170 C.3       4 UNK         0.0263 
     53 CB        -76.0323   20.8029  -74.6766 C.3       4 UNK        -0.1981 
     54 N         -77.8511   22.4516  -74.6250 N.am      4 UNK        -0.4224 
     55 C         -78.6067   23.5219  -74.9168 C.2       3 UNK         0.4895 
     56 O         -78.2736   24.3953  -75.7209 O.2       3 UNK        -0.5091 
     57 CA        -79.9004   23.6833  -74.0998 C.3       3 UNK         0.0250 
     58 CB        -79.5863   24.3629  -72.7552 C.3       3 UNK        -0.1996 
     59 N         -80.9125   24.4798  -74.7971 N.am      3 UNK        -0.4254 
     60 C         -81.5372   24.1292  -75.9302 C.2       2 UNK         0.5004 
     61 O         -81.3633   23.0465  -76.4926 O.2       2 UNK        -0.5226 
     62 CA        -82.5526   25.1268  -76.5285 C.3       2 UNK         0.0269 
     63 CB        -83.9383   24.4746  -76.6813 C.3       2 UNK        -0.1926 
     64 N         -82.7066   26.3670  -75.7582 N.am      2 UNK        -0.4687 
     65 C         -81.8616   27.4077  -75.7943 C.2       1 UNK         0.5165 
     66 O         -80.8488   27.4378  -76.4926 O.2       1 UNK        -0.5079 
     67 H67       -86.1577   29.4421  -75.1040 H         1 UNK         0.0900 
     68 H68       -86.2446   29.1112  -76.8352 H         1 UNK         0.0900 
     69 H69       -85.9495   30.7556  -76.2636 H         1 UNK         0.0900 
     70 H70       -84.2208   28.7838  -74.2133 H         1 UNK         0.2959 
     71 H71       -81.6623   29.4758  -75.2875 H         1 UNK         0.1079 
     72 H72       -82.2732   27.4772  -73.0365 H         1 UNK         0.0837 
     73 H73       -82.2640   29.2068  -72.8233 H         1 UNK         0.0837 
     74 H74       -80.2971   29.7935  -71.1921 H         1 UNK         0.0685 
     75 H75       -80.7186   28.1333  -70.8327 H         1 UNK         0.0685 
     76 H76       -78.9117   26.3951  -70.6039 H         1 UNK         0.1434 
     77 H77       -75.0262   27.8117  -69.4759 H         1 UNK         0.1329 
     78 H78       -77.9903   30.5685  -70.9043 H         1 UNK         0.1335 
     79 H79       -74.4254   30.0776  -69.7053 H         1 UNK         0.0680 
     80 H80       -75.7364   31.1416  -69.2600 H         1 UNK         0.0680 
     81 H81       -75.1535   30.3062  -73.6923 H         1 UNK         0.1032 
     82 H82       -74.9596   29.1169  -72.4538 H         1 UNK         0.1032 
     83 H83       -72.7540   31.1662  -72.9325 H         1 UNK         0.0461 
     84 H84       -71.7488   30.9136  -70.9123 H         1 UNK         0.3453 
     85 H85       -71.2100   29.3703  -70.3020 H         1 UNK         0.3453 
     86 H86       -73.2139   28.7903  -74.6575 H         1 UNK         0.2984 
     87 H87       -72.7264   29.8094  -77.1310 H         1 UNK         0.0554 
     88 H88       -70.6079   29.7820  -78.4595 H         1 UNK         0.0847 
     89 H89       -69.6840   30.1486  -77.0031 H         1 UNK         0.0847 
     90 H90       -70.8405   31.3114  -77.6296 H         1 UNK         0.0847 
     91 H91       -72.4451   27.6460  -76.9144 H         1 UNK         0.3141 
     92 H92       -69.8940   25.4919  -76.4687 H         1 UNK         0.0743 
     93 H93       -71.7455   25.8436  -74.0531 H         1 UNK         0.0784 
     94 H94       -71.0971   24.2867  -74.5814 H         1 UNK         0.0784 
     95 H95       -70.0177   25.5571  -74.0289 H         1 UNK         0.0784 
     96 H96       -72.7925   25.2093  -76.3102 H         1 UNK         0.3213 
     97 H97       -73.3777   25.5012  -79.7712 H         1 UNK         0.0855 
     98 H98       -73.3673   22.9243  -78.1073 H         1 UNK         0.0814 
     99 H99       -72.6507   23.1414  -79.6950 H         1 UNK         0.0814 
    100 H100      -74.3944   23.2305  -79.5080 H         1 UNK         0.0814 
    101 H101      -74.9070   24.7838  -77.3879 H         1 UNK         0.3105 
    102 H102      -75.8793   28.1297  -76.6333 H         1 UNK         0.0547 
    103 H103      -77.5414   25.8978  -77.9199 H         1 UNK         0.0837 
    104 H104      -78.1706   27.2001  -76.9148 H         1 UNK         0.0837 
    105 H105      -77.4493   27.5643  -78.4744 H         1 UNK         0.0837 
    106 H106      -76.6825   25.5890  -75.5854 H         1 UNK         0.3020 
    107 H107      -73.8770   24.9949  -73.5211 H         1 UNK         0.1245 
    108 H108      -74.8702   26.8839  -72.1896 H         1 UNK         0.0781 
    109 H109      -76.4686   26.2295  -72.4863 H         1 UNK         0.0781 
    110 H110      -77.3388   24.8399  -69.7928 H         1 UNK         0.0836 
    111 H111      -76.1121   25.4358  -68.7081 H         1 UNK         0.0836 
    112 H112      -76.4492   23.8795  -73.3447 H         1 UNK         0.3022 
    113 H113      -76.6792   22.0561  -76.2957 H         1 UNK         0.0747 
    114 H114      -76.7245   19.9945  -74.9124 H         1 UNK         0.0793 
    115 H115      -75.0700   20.5412  -75.1195 H         1 UNK         0.0793 
    116 H116      -75.8968   20.8267  -73.5945 H         1 UNK         0.0793 
    117 H117      -78.1929   21.7926  -73.9397 H         1 UNK         0.3047 
    118 H118      -80.3222   22.6937  -73.9118 H         1 UNK         0.0822 
    119 H119      -80.4843   24.4797  -72.1482 H         1 UNK         0.0807 
    120 H120      -79.1489   25.3521  -72.8998 H         1 UNK         0.0807 
    121 H121      -78.8775   23.7761  -72.1693 H         1 UNK         0.0807 
    122 H122      -81.0915   25.4021  -74.4312 H         1 UNK         0.2946 
    123 H123      -82.1861   25.3823  -77.5256 H         1 UNK         0.1144 
    124 H124      -84.6461   25.1531  -77.1581 H         1 UNK         0.0793 
    125 H125      -84.3528   24.1779  -75.7171 H         1 UNK         0.0793 
    126 H126      -83.8861   23.5794  -77.3026 H         1 UNK         0.0793 
    127 H127      -83.5231   26.4332  -75.1674 H         1 UNK         0.2896 
@<TRIPOS>BOND
     1    1    2 1    
     2    1   67 1    
     3    1   68 1    
     4    1   69 1    
     5    2    3 2    
     6    2    4 am   BACKBONE|DICT|INTERRES
     7    4    5 1    
     8    4   70 1    
     9    5    6 1    
    10    5   65 1    
    11    5   71 1    
    12    6    7 1    
    13    6   72 1    
    14    6   73 1    
    15    7    8 1    
    16    8    9 1    
    17    8   74 1    
    18    8   75 1    
    19    9   10 ar   
    20    9   14 ar   
    21   10   11 ar   
    22   10   76 1    
    23   11   12 ar   
    24   11   48 1    
    25   12   13 ar   
    26   12   77 1    
    27   13   14 ar   
    28   13   15 1    
    29   14   78 1    
    30   15   16 1    
    31   15   79 1    
    32   15   80 1    
    33   16   17 1    
    34   17   18 1    
    35   17   81 1    
    36   17   82 1    
    37   18   19 1    
    38   18   22 1    
    39   18   83 1    
    40   19   20 am   BACKBONE|DICT|INTERRES
    41   19   21 2    
    42   20   84 1    
    43   20   85 1    
    44   22   23 am   BACKBONE|DICT|INTERRES
    45   22   86 1    
    46   23   24 2    
    47   23   25 1    
    48   25   26 1    
    49   25   27 1    
    50   25   87 1    
    51   26   88 1    
    52   26   89 1    
    53   26   90 1    
    54   27   28 am   BACKBONE|DICT|INTERRES
    55   27   91 1    
    56   28   29 2    
    57   28   30 1    
    58   30   31 1    
    59   30   32 1    
    60   30   92 1    
    61   31   93 1    
    62   31   94 1    
    63   31   95 1    
    64   32   33 am   BACKBONE|DICT|INTERRES
    65   32   96 1    
    66   33   34 2    
    67   33   35 1    
    68   35   36 1    
    69   35   37 1    
    70   35   97 1    
    71   36   98 1    
    72   36   99 1    
    73   36  100 1    
    74   37   38 am   BACKBONE|DICT|INTERRES
    75   37  101 1    
    76   38   39 2    
    77   38   40 1    
    78   40   41 1    
    79   40   42 1    
    80   40  102 1    
    81   41  103 1    
    82   41  104 1    
    83   41  105 1    
    84   42   43 am   BACKBONE|DICT|INTERRES
    85   42  106 1    
    86   43   44 2    
    87   43   45 1    
    88   45   46 1    
    89   45   49 1    
    90   45  107 1    
    91   46   47 1    
    92   46  108 1    
    93   46  109 1    
    94   47   48 1    
    95   48  110 1    
    96   48  111 1    
    97   49   50 am   BACKBONE|DICT|INTERRES
    98   49  112 1    
    99   50   51 2    
   100   50   52 1    
   101   52   53 1    
   102   52   54 1    
   103   52  113 1    
   104   53  114 1    
   105   53  115 1    
   106   53  116 1    
   107   54   55 am   BACKBONE|DICT|INTERRES
   108   54  117 1    
   109   55   56 2    
   110   55   57 1    
   111   57   58 1    
   112   57   59 1    
   113   57  118 1    
   114   58  119 1    
   115   58  120 1    
   116   58  121 1    
   117   59   60 am   BACKBONE|DICT|INTERRES
   118   59  122 1    
   119   60   61 2    
   120   60   62 1    
   121   62   63 1    
   122   62   64 1    
   123   62  123 1    
   124   63  124 1    
   125   63  125 1    
   126   63  126 1    
   127   64   65 am   BACKBONE|DICT|INTERRES
   128   64  127 1    
   129   65   66 2    
@<TRIPOS>SUBSTRUCTURE
     1 UNK         1 GROUP             0       ****    0 ROOT    
