@<TRIPOS>MOLECULE
3R135
127   129    1
SMALL
USER_CHARGES


@<TRIPOS>ATOM
      1 CA        -79.6385   30.8428  -76.3522 C.3       0 UNK        -0.1998 
      2 C         -79.2460   29.5730  -75.6129 C.2       0 UNK         0.4909 
      3 O         -78.0924   29.1520  -75.6919 O.2       0 UNK        -0.5240 
      4 N         -80.1970   28.9629  -74.8923 N.am      1 UNK        -0.4739 
      5 CA        -79.9866   27.7464  -74.0962 C.3       1 UNK         0.0864 
      6 C6        -81.1539   27.4700  -73.1067 C.3       11 UNK        -0.0881 
      7 S7        -81.6366   28.9252  -72.1050 S.3       11 UNK        -0.2682 
      8 C8        -80.6573   28.7127  -70.5811 C.3       11 UNK         0.0289 
      9 C9        -79.1731   28.6153  -70.8922 C.ar      11 UNK        -0.0687 
     10 C10       -78.5113   27.3910  -70.7691 C.ar      11 UNK        -0.0823 
     11 C11       -77.1810   27.2528  -71.1730 C.ar      11 UNK        -0.0830 
     12 C12       -76.5114   28.3723  -71.6852 C.ar      11 UNK        -0.1021 
     13 C13       -77.1562   29.6071  -71.7997 C.ar      11 UNK        -0.0753 
     14 C14       -78.4839   29.7271  -71.3841 C.ar      11 UNK        -0.0933 
     15 C15       -76.4547   30.7848  -72.4613 C.3       11 UNK         0.0166 
     16 S16       -75.5402   31.8365  -71.2874 S.3       11 UNK        -0.2615 
     17 C17       -74.0603   30.8441  -70.8755 C.3       11 UNK        -0.0865 
     18 CA        -72.8055   31.2159  -71.7225 C.3       10 UNK         0.0862 
     19 C         -71.4875   30.6398  -71.1139 C.2       10 UNK         0.5551 
     20 N         -70.5478   30.1343  -71.9041 N.am      10 UNK        -0.7319 
     21 O         -71.2926   30.6900  -69.9017 O.2       10 UNK        -0.5018 
     22 N         -72.9851   30.9725  -73.1679 N.am      10 UNK        -0.4509 
     23 C         -73.1588   29.7821  -73.7592 C.2       10 UNK         0.4899 
     24 O         -73.2249   28.7191  -73.1419 O.2       10 UNK        -0.4839 
     25 CA        -73.3169   29.7776  -75.2959 C.3       9 UNK         0.0222 
     26 CB        -72.6863   31.0043  -75.9935 C.3       9 UNK        -0.1966 
     27 N         -72.8281   28.5378  -75.9107 N.am      9 UNK        -0.4218 
     28 C         -71.5922   28.0175  -75.8115 C.2       9 UNK         0.5020 
     29 O         -70.6640   28.5536  -75.2023 O.2       9 UNK        -0.5274 
     30 CA        -71.3348   26.6683  -76.5113 C.3       8 UNK         0.0270 
     31 CB        -71.4177   25.5167  -75.4961 C.3       8 UNK        -0.1976 
     32 N         -72.2491   26.4091  -77.6286 N.am      8 UNK        -0.4313 
     33 C         -72.2204   27.0847  -78.7885 C.2       8 UNK         0.5041 
     34 O         -71.3576   27.9200  -79.0636 O.2       8 UNK        -0.5577 
     35 CA        -73.3336   26.8113  -79.8192 C.3       7 UNK         0.0284 
     36 CB        -72.7933   25.9549  -80.9766 C.3       7 UNK        -0.1958 
     37 N         -74.5400   26.1756  -79.2809 N.am      7 UNK        -0.4454 
     38 C         -75.3407   26.6770  -78.3302 C.2       7 UNK         0.5089 
     39 O         -75.1331   27.7481  -77.7577 O.2       7 UNK        -0.5125 
     40 CA        -76.5485   25.8160  -77.9013 C.3       6 UNK         0.0408 
     41 CB        -76.7919   24.5768  -78.7955 C.3       6 UNK        -0.1791 
     42 N         -76.4542   25.4068  -76.4942 N.am      6 UNK        -0.4762 
     43 C         -75.4062   24.8007  -75.9142 C.2       6 UNK         0.5007 
     44 O         -74.3906   24.4511  -76.5192 O.2       6 UNK        -0.5032 
     45 CA        -75.4967   24.5694  -74.4003 C.3       5 UNK         0.0783 
     46 C46       -75.3355   25.9050  -73.6396 C.3       11 UNK        -0.0857 
     47 S47       -74.9225   25.6455  -71.8819 S.3       11 UNK        -0.2512 
     48 C48       -76.5386   25.8679  -71.0608 C.3       11 UNK         0.0225 
     49 N         -76.7447   23.8811  -74.0517 N.am      5 UNK        -0.4615 
     50 C         -76.8435   22.5517  -73.9323 C.2       4 UNK         0.5053 
     51 O         -75.9195   21.7771  -74.1827 O.2       4 UNK        -0.5105 
     52 CA        -78.1675   21.9713  -73.4182 C.3       4 UNK         0.0263 
     53 CB        -78.2622   22.0796  -71.8848 C.3       4 UNK        -0.1981 
     54 N         -79.3562   22.5622  -74.0402 N.am      4 UNK        -0.4224 
     55 C         -80.4974   21.8805  -74.2349 C.2       3 UNK         0.4895 
     56 O         -80.6385   20.6935  -73.9359 O.2       3 UNK        -0.5091 
     57 CA        -81.7062   22.6214  -74.8403 C.3       3 UNK         0.0250 
     58 CB        -82.7505   22.9168  -73.7502 C.3       3 UNK        -0.1996 
     59 N         -81.3717   23.8718  -75.5190 N.am      3 UNK        -0.4254 
     60 C         -80.6751   23.9751  -76.6576 C.2       2 UNK         0.5004 
     61 O         -80.2755   23.0089  -77.3068 O.2       2 UNK        -0.5226 
     62 CA        -80.3483   25.3971  -77.1461 C.3       2 UNK         0.0269 
     63 CB        -81.2428   25.7796  -78.3358 C.3       2 UNK        -0.1926 
     64 N         -80.4380   26.4467  -76.1226 N.am      2 UNK        -0.4687 
     65 C         -79.7295   26.5131  -74.9842 C.2       1 UNK         0.5165 
     66 O         -78.9158   25.6542  -74.6328 O.2       1 UNK        -0.5079 
     67 H67       -79.0257   31.6774  -76.0128 H         1 UNK         0.0900 
     68 H68       -79.4807   30.7168  -77.4229 H         1 UNK         0.0900 
     69 H69       -80.6847   31.1022  -76.1908 H         1 UNK         0.0900 
     70 H70       -81.1193   29.3709  -74.8314 H         1 UNK         0.2959 
     71 H71       -79.0717   27.8956  -73.5219 H         1 UNK         0.1079 
     72 H72       -80.9019   26.6441  -72.4386 H         1 UNK         0.0837 
     73 H73       -82.0453   27.1513  -73.6505 H         1 UNK         0.0837 
     74 H74       -81.0070   27.8264  -70.0494 H         1 UNK         0.0685 
     75 H75       -80.8355   29.5616  -69.9195 H         1 UNK         0.0685 
     76 H76       -79.0474   26.5291  -70.3949 H         1 UNK         0.1434 
     77 H77       -75.4937   28.2835  -72.0314 H         1 UNK         0.1329 
     78 H78       -79.0019   30.6694  -71.5001 H         1 UNK         0.1335 
     79 H79       -77.1955   31.4069  -72.9661 H         1 UNK         0.0680 
     80 H80       -75.7943   30.4309  -73.2500 H         1 UNK         0.0680 
     81 H81       -74.2735   29.7796  -70.9423 H         1 UNK         0.1032 
     82 H82       -73.8656   31.0269  -69.8173 H         1 UNK         0.1032 
     83 H83       -72.6784   32.2959  -71.6395 H         1 UNK         0.0461 
     84 H84       -69.6976   29.7801  -71.4958 H         1 UNK         0.3453 
     85 H85       -70.7033   30.0526  -72.8974 H         1 UNK         0.3453 
     86 H86       -72.9330   31.7940  -73.7521 H         1 UNK         0.2984 
     87 H87       -74.3903   29.7999  -75.4899 H         1 UNK         0.0554 
     88 H88       -72.7721   30.9241  -77.0774 H         1 UNK         0.0847 
     89 H89       -71.6270   31.1084  -75.7550 H         1 UNK         0.0847 
     90 H90       -73.1866   31.9303  -75.7085 H         1 UNK         0.0847 
     91 H91       -73.5181   28.0321  -76.4563 H         1 UNK         0.3141 
     92 H92       -70.3179   26.6940  -76.9091 H         1 UNK         0.0743 
     93 H93       -72.3910   25.4776  -75.0070 H         1 UNK         0.0784 
     94 H94       -71.2387   24.5512  -75.9697 H         1 UNK         0.0784 
     95 H95       -70.6692   25.6378  -74.7119 H         1 UNK         0.0784 
     96 H96       -72.9851   25.7276  -77.4718 H         1 UNK         0.3213 
     97 H97       -73.6332   27.7808  -80.2229 H         1 UNK         0.0855 
     98 H98       -72.5021   24.9592  -80.6398 H         1 UNK         0.0814 
     99 H99       -71.9127   26.4162  -81.4265 H         1 UNK         0.0814 
    100 H100      -73.5342   25.8408  -81.7681 H         1 UNK         0.0814 
    101 H101      -74.7734   25.2692  -79.6594 H         1 UNK         0.3105 
    102 H102      -77.4155   26.4720  -77.9823 H         1 UNK         0.0547 
    103 H103      -77.6776   24.0268  -78.4789 H         1 UNK         0.0837 
    104 H104      -75.9576   23.8749  -78.7663 H         1 UNK         0.0837 
    105 H105      -76.9541   24.8641  -79.8353 H         1 UNK         0.0837 
    106 H106      -77.2326   25.6719  -75.9015 H         1 UNK         0.3020 
    107 H107      -74.6444   23.9379  -74.1362 H         1 UNK         0.1245 
    108 H108      -76.2322   26.5188  -73.7392 H         1 UNK         0.0781 
    109 H109      -74.5212   26.4970  -74.0626 H         1 UNK         0.0781 
    110 H110      -76.4149   25.6317  -70.0032 H         1 UNK         0.0836 
    111 H111      -77.2255   25.1240  -71.4631 H         1 UNK         0.0836 
    112 H112      -77.5541   24.4730  -73.9016 H         1 UNK         0.3022 
    113 H113      -78.1328   20.9090  -73.6717 H         1 UNK         0.0747 
    114 H114      -77.3482   21.7254  -71.4058 H         1 UNK         0.0793 
    115 H115      -78.4274   23.1069  -71.5618 H         1 UNK         0.0793 
    116 H116      -79.0828   21.4755  -71.4976 H         1 UNK         0.0793 
    117 H117      -79.2996   23.5286  -74.3379 H         1 UNK         0.3047 
    118 H118      -82.1580   21.9521  -75.5758 H         1 UNK         0.0822 
    119 H119      -83.6504   23.3650  -74.1719 H         1 UNK         0.0807 
    120 H120      -82.3601   23.5946  -72.9898 H         1 UNK         0.0807 
    121 H121      -83.0564   22.0006  -73.2428 H         1 UNK         0.0807 
    122 H122      -81.6688   24.7253  -75.0706 H         1 UNK         0.2946 
    123 H123      -79.3184   25.3690  -77.4929 H         1 UNK         0.1144 
    124 H124      -80.9446   26.7358  -78.7661 H         1 UNK         0.0793 
    125 H125      -82.2915   25.8528  -78.0448 H         1 UNK         0.0793 
    126 H126      -81.1765   25.0356  -79.1313 H         1 UNK         0.0793 
    127 H127      -81.0686   27.2104  -76.3211 H         1 UNK         0.2896 
@<TRIPOS>BOND
     1    1    2 1    
     2    1   67 1    
     3    1   68 1    
     4    1   69 1    
     5    2    3 2    
     6    2    4 am   BACKBONE|DICT|INTERRES
     7    4    5 1    
     8    4   70 1    
     9    5    6 1    
    10    5   65 1    
    11    5   71 1    
    12    6    7 1    
    13    6   72 1    
    14    6   73 1    
    15    7    8 1    
    16    8    9 1    
    17    8   74 1    
    18    8   75 1    
    19    9   10 ar   
    20    9   14 ar   
    21   10   11 ar   
    22   10   76 1    
    23   11   12 ar   
    24   11   48 1    
    25   12   13 ar   
    26   12   77 1    
    27   13   14 ar   
    28   13   15 1    
    29   14   78 1    
    30   15   16 1    
    31   15   79 1    
    32   15   80 1    
    33   16   17 1    
    34   17   18 1    
    35   17   81 1    
    36   17   82 1    
    37   18   19 1    
    38   18   22 1    
    39   18   83 1    
    40   19   20 am   BACKBONE|DICT|INTERRES
    41   19   21 2    
    42   20   84 1    
    43   20   85 1    
    44   22   23 am   BACKBONE|DICT|INTERRES
    45   22   86 1    
    46   23   24 2    
    47   23   25 1    
    48   25   26 1    
    49   25   27 1    
    50   25   87 1    
    51   26   88 1    
    52   26   89 1    
    53   26   90 1    
    54   27   28 am   BACKBONE|DICT|INTERRES
    55   27   91 1    
    56   28   29 2    
    57   28   30 1    
    58   30   31 1    
    59   30   32 1    
    60   30   92 1    
    61   31   93 1    
    62   31   94 1    
    63   31   95 1    
    64   32   33 am   BACKBONE|DICT|INTERRES
    65   32   96 1    
    66   33   34 2    
    67   33   35 1    
    68   35   36 1    
    69   35   37 1    
    70   35   97 1    
    71   36   98 1    
    72   36   99 1    
    73   36  100 1    
    74   37   38 am   BACKBONE|DICT|INTERRES
    75   37  101 1    
    76   38   39 2    
    77   38   40 1    
    78   40   41 1    
    79   40   42 1    
    80   40  102 1    
    81   41  103 1    
    82   41  104 1    
    83   41  105 1    
    84   42   43 am   BACKBONE|DICT|INTERRES
    85   42  106 1    
    86   43   44 2    
    87   43   45 1    
    88   45   46 1    
    89   45   49 1    
    90   45  107 1    
    91   46   47 1    
    92   46  108 1    
    93   46  109 1    
    94   47   48 1    
    95   48  110 1    
    96   48  111 1    
    97   49   50 am   BACKBONE|DICT|INTERRES
    98   49  112 1    
    99   50   51 2    
   100   50   52 1    
   101   52   53 1    
   102   52   54 1    
   103   52  113 1    
   104   53  114 1    
   105   53  115 1    
   106   53  116 1    
   107   54   55 am   BACKBONE|DICT|INTERRES
   108   54  117 1    
   109   55   56 2    
   110   55   57 1    
   111   57   58 1    
   112   57   59 1    
   113   57  118 1    
   114   58  119 1    
   115   58  120 1    
   116   58  121 1    
   117   59   60 am   BACKBONE|DICT|INTERRES
   118   59  122 1    
   119   60   61 2    
   120   60   62 1    
   121   62   63 1    
   122   62   64 1    
   123   62  123 1    
   124   63  124 1    
   125   63  125 1    
   126   63  126 1    
   127   64   65 am   BACKBONE|DICT|INTERRES
   128   64  127 1    
   129   65   66 2    
@<TRIPOS>SUBSTRUCTURE
     1 UNK         1 GROUP             0       ****    0 ROOT    
