@<TRIPOS>MOLECULE
3R135
127   129    1
SMALL
USER_CHARGES


@<TRIPOS>ATOM
      1 CA        -84.0865   23.1624  -71.1013 C.3       0 UNK        -0.1998 
      2 C         -83.7187   24.6299  -71.2598 C.2       0 UNK         0.4909 
      3 O         -84.6066   25.4776  -71.3560 O.2       0 UNK        -0.5240 
      4 N         -82.4154   24.9367  -71.2878 N.am      1 UNK        -0.4739 
      5 CA        -81.8745   26.2907  -71.4709 C.3       1 UNK         0.0864 
      6 C6        -80.4186   26.3866  -70.9467 C.3       11 UNK        -0.0881 
      7 S7        -79.2410   25.3097  -71.8427 S.3       11 UNK        -0.2682 
      8 C8        -77.6275   25.9780  -71.3061 C.3       11 UNK         0.0289 
      9 C9        -77.3456   27.4335  -71.6859 C.ar      11 UNK        -0.0687 
     10 C10       -78.0219   28.0876  -72.7239 C.ar      11 UNK        -0.0823 
     11 C11       -77.7267   29.4150  -73.0441 C.ar      11 UNK        -0.0830 
     12 C12       -76.7564   30.1012  -72.3109 C.ar      11 UNK        -0.1021 
     13 C13       -76.0588   29.4601  -71.2847 C.ar      11 UNK        -0.0753 
     14 C14       -76.3578   28.1285  -70.9800 C.ar      11 UNK        -0.0933 
     15 C15       -74.9919   30.2043  -70.4948 C.3       11 UNK         0.0166 
     16 S16       -73.3623   30.1090  -71.3007 S.3       11 UNK        -0.2615 
     17 C17       -73.4350   31.5437  -72.4323 C.3       11 UNK        -0.0865 
     18 CA        -72.2311   31.6548  -73.4038 C.3       10 UNK         0.0862 
     19 C         -70.9062   32.0216  -72.6730 C.2       10 UNK         0.5551 
     20 N         -70.7542   33.2772  -72.2728 N.am      10 UNK        -0.7319 
     21 O         -70.0323   31.1880  -72.4421 O.2       10 UNK        -0.5018 
     22 N         -72.1416   30.4694  -74.2660 N.am      10 UNK        -0.4509 
     23 C         -71.3731   30.3531  -75.3556 C.2       10 UNK         0.4899 
     24 O         -70.6833   31.2719  -75.8010 O.2       10 UNK        -0.4839 
     25 CA        -71.4148   29.0105  -76.1145 C.3       9 UNK         0.0222 
     26 CB        -70.0276   28.5886  -76.6429 C.3       9 UNK        -0.1966 
     27 N         -72.0600   27.9085  -75.3884 N.am      9 UNK        -0.4218 
     28 C         -71.6373   27.2925  -74.2727 C.2       9 UNK         0.5020 
     29 O         -70.6288   27.6097  -73.6422 O.2       9 UNK        -0.5274 
     30 CA        -72.4820   26.1017  -73.7876 C.3       8 UNK         0.0270 
     31 CB        -73.7153   26.5872  -73.0068 C.3       8 UNK        -0.1976 
     32 N         -72.9077   25.2280  -74.8838 N.am      8 UNK        -0.4313 
     33 C         -72.0860   24.5059  -75.6605 C.2       8 UNK         0.5041 
     34 O         -70.8662   24.4429  -75.5025 O.2       8 UNK        -0.5577 
     35 CA        -72.7330   23.7321  -76.8198 C.3       7 UNK         0.0284 
     36 CB        -73.3303   22.4013  -76.3319 C.3       7 UNK        -0.1958 
     37 N         -73.7658   24.5283  -77.4852 N.am      7 UNK        -0.4454 
     38 C         -73.5165   25.4812  -78.3944 C.2       7 UNK         0.5089 
     39 O         -72.3929   25.7407  -78.8254 O.2       7 UNK        -0.5125 
     40 CA        -74.7219   26.2887  -78.9109 C.3       6 UNK         0.0408 
     41 CB        -75.2985   25.6399  -80.1787 C.3       6 UNK        -0.1791 
     42 N         -75.7884   26.4414  -77.9176 N.am      6 UNK        -0.4762 
     43 C         -75.6831   27.1801  -76.8008 C.2       6 UNK         0.5007 
     44 O         -74.6725   27.8142  -76.4982 O.2       6 UNK        -0.5032 
     45 CA        -76.8789   27.1438  -75.8236 C.3       5 UNK         0.0783 
     46 C46       -77.9657   28.1817  -76.2067 C.3       11 UNK        -0.0857 
     47 S47       -77.5336   29.8948  -75.7545 S.3       11 UNK        -0.2512 
     48 C48       -78.4439   30.1080  -74.1911 C.3       11 UNK         0.0225 
     49 N         -77.4696   25.8067  -75.7151 N.am      5 UNK        -0.4615 
     50 C         -76.8235   24.6704  -75.4215 C.2       4 UNK         0.5053 
     51 O         -75.6502   24.6352  -75.0565 O.2       4 UNK        -0.5105 
     52 CA        -77.5799   23.3463  -75.6468 C.3       4 UNK         0.0263 
     53 CB        -77.8540   22.6346  -74.3139 C.3       4 UNK        -0.1981 
     54 N         -78.8407   23.5014  -76.3812 N.am      4 UNK        -0.4224 
     55 C         -78.9722   23.9090  -77.6509 C.2       3 UNK         0.4895 
     56 O         -78.0172   24.1437  -78.3923 O.2       3 UNK        -0.5091 
     57 CA        -80.4024   24.1978  -78.1429 C.3       3 UNK         0.0250 
     58 CB        -81.1825   22.8959  -78.4132 C.3       3 UNK        -0.1996 
     59 N         -81.1496   25.1233  -77.2700 N.am      3 UNK        -0.4254 
     60 C         -81.5764   24.9226  -76.0139 C.2       2 UNK         0.5004 
     61 O         -81.4360   23.8607  -75.3988 O.2       2 UNK        -0.5226 
     62 CA        -82.2503   26.1114  -75.3174 C.3       2 UNK         0.0269 
     63 CB        -83.7203   26.2498  -75.7485 C.3       2 UNK        -0.1926 
     64 N         -82.1854   25.8815  -73.8784 N.am      2 UNK        -0.4687 
     65 C         -82.0037   26.8035  -72.9262 C.2       1 UNK         0.5165 
     66 O         -81.9264   28.0114  -73.1554 O.2       1 UNK        -0.5079 
     67 H67       -83.2044   22.5270  -71.0241 H         1 UNK         0.0900 
     68 H68       -84.6713   22.8280  -71.9578 H         1 UNK         0.0900 
     69 H69       -84.6860   23.0208  -70.2025 H         1 UNK         0.0900 
     70 H70       -81.7236   24.2041  -71.2067 H         1 UNK         0.2959 
     71 H71       -82.4792   26.9680  -70.8631 H         1 UNK         0.1079 
     72 H72       -80.3897   26.1153  -69.8902 H         1 UNK         0.0837 
     73 H73       -80.0788   27.4224  -70.9884 H         1 UNK         0.0837 
     74 H74       -77.5564   25.8613  -70.2235 H         1 UNK         0.0685 
     75 H75       -76.8425   25.3556  -71.7377 H         1 UNK         0.0685 
     76 H76       -78.7746   27.5665  -73.2973 H         1 UNK         0.1434 
     77 H77       -76.5391   31.1327  -72.5490 H         1 UNK         0.1329 
     78 H78       -75.8174   27.6306  -70.1863 H         1 UNK         0.1335 
     79 H79       -75.2798   31.2472  -70.3538 H         1 UNK         0.0680 
     80 H80       -74.9087   29.7774  -69.4942 H         1 UNK         0.0680 
     81 H81       -73.5344   32.4548  -71.8393 H         1 UNK         0.1032 
     82 H82       -74.3489   31.4761  -73.0214 H         1 UNK         0.1032 
     83 H83       -72.4451   32.4892  -74.0750 H         1 UNK         0.0461 
     84 H84       -69.9092   33.5369  -71.7881 H         1 UNK         0.3453 
     85 H85       -71.4607   33.9735  -72.4528 H         1 UNK         0.3453 
     86 H86       -72.6430   29.6552  -73.9447 H         1 UNK         0.2984 
     87 H87       -72.0498   29.1875  -76.9838 H         1 UNK         0.0554 
     88 H88       -70.0842   27.6520  -77.1983 H         1 UNK         0.0847 
     89 H89       -69.3088   28.4569  -75.8337 H         1 UNK         0.0847 
     90 H90       -69.6192   29.3403  -77.3193 H         1 UNK         0.0847 
     91 H91       -72.9533   27.6180  -75.7823 H         1 UNK         0.3141 
     92 H92       -71.8641   25.5058  -73.1128 H         1 UNK         0.0743 
     93 H93       -74.3630   27.2180  -73.6163 H         1 UNK         0.0784 
     94 H94       -74.3122   25.7504  -72.6436 H         1 UNK         0.0784 
     95 H95       -73.4180   27.1726  -72.1363 H         1 UNK         0.0784 
     96 H96       -73.9116   25.1417  -75.0355 H         1 UNK         0.3213 
     97 H97       -71.9490   23.4999  -77.5444 H         1 UNK         0.0855 
     98 H98       -74.1102   22.5489  -75.5847 H         1 UNK         0.0814 
     99 H99       -72.5607   21.7771  -75.8759 H         1 UNK         0.0814 
    100 H100      -73.7596   21.8332  -77.1572 H         1 UNK         0.0814 
    101 H101      -74.7137   24.4152  -77.1551 H         1 UNK         0.3105 
    102 H102      -74.3619   27.2858  -79.1736 H         1 UNK         0.0547 
    103 H103      -74.5322   25.5386  -80.9485 H         1 UNK         0.0837 
    104 H104      -75.6939   24.6431  -79.9789 H         1 UNK         0.0837 
    105 H105      -76.1035   26.2408  -80.6018 H         1 UNK         0.0837 
    106 H106      -76.6349   25.9070  -78.0762 H         1 UNK         0.3020 
    107 H107      -76.4806   27.3882  -74.8378 H         1 UNK         0.1245 
    108 H108      -78.9117   27.9364  -75.7219 H         1 UNK         0.0781 
    109 H109      -78.1790   28.1490  -77.2771 H         1 UNK         0.0781 
    110 H110      -79.4655   29.7368  -74.2904 H         1 UNK         0.0836 
    111 H111      -78.5322   31.1748  -73.9800 H         1 UNK         0.0836 
    112 H112      -78.4316   25.7219  -76.0024 H         1 UNK         0.3022 
    113 H113      -76.9242   22.7090  -76.2434 H         1 UNK         0.0747 
    114 H114      -78.2431   21.6295  -74.4767 H         1 UNK         0.0793 
    115 H115      -76.9423   22.5366  -73.7225 H         1 UNK         0.0793 
    116 H116      -78.5802   23.1779  -73.7104 H         1 UNK         0.0793 
    117 H117      -79.7015   23.3858  -75.8488 H         1 UNK         0.3047 
    118 H118      -80.3011   24.7141  -79.0993 H         1 UNK         0.0822 
    119 H119      -82.1721   23.1056  -78.8193 H         1 UNK         0.0807 
    120 H120      -81.3117   22.2945  -77.5131 H         1 UNK         0.0807 
    121 H121      -80.6589   22.2753  -79.1416 H         1 UNK         0.0807 
    122 H122      -81.3222   26.0320  -77.6790 H         1 UNK         0.2946 
    123 H123      -81.7016   27.0216  -75.5707 H         1 UNK         0.1144 
    124 H124      -84.2930   25.3501  -75.5191 H         1 UNK         0.0793 
    125 H125      -83.8025   26.4262  -76.8217 H         1 UNK         0.0793 
    126 H126      -84.2019   27.0885  -75.2452 H         1 UNK         0.0793 
    127 H127      -82.1618   24.9041  -73.6151 H         1 UNK         0.2896 
@<TRIPOS>BOND
     1    1    2 1    
     2    1   67 1    
     3    1   68 1    
     4    1   69 1    
     5    2    3 2    
     6    2    4 am   BACKBONE|DICT|INTERRES
     7    4    5 1    
     8    4   70 1    
     9    5    6 1    
    10    5   65 1    
    11    5   71 1    
    12    6    7 1    
    13    6   72 1    
    14    6   73 1    
    15    7    8 1    
    16    8    9 1    
    17    8   74 1    
    18    8   75 1    
    19    9   10 ar   
    20    9   14 ar   
    21   10   11 ar   
    22   10   76 1    
    23   11   12 ar   
    24   11   48 1    
    25   12   13 ar   
    26   12   77 1    
    27   13   14 ar   
    28   13   15 1    
    29   14   78 1    
    30   15   16 1    
    31   15   79 1    
    32   15   80 1    
    33   16   17 1    
    34   17   18 1    
    35   17   81 1    
    36   17   82 1    
    37   18   19 1    
    38   18   22 1    
    39   18   83 1    
    40   19   20 am   BACKBONE|DICT|INTERRES
    41   19   21 2    
    42   20   84 1    
    43   20   85 1    
    44   22   23 am   BACKBONE|DICT|INTERRES
    45   22   86 1    
    46   23   24 2    
    47   23   25 1    
    48   25   26 1    
    49   25   27 1    
    50   25   87 1    
    51   26   88 1    
    52   26   89 1    
    53   26   90 1    
    54   27   28 am   BACKBONE|DICT|INTERRES
    55   27   91 1    
    56   28   29 2    
    57   28   30 1    
    58   30   31 1    
    59   30   32 1    
    60   30   92 1    
    61   31   93 1    
    62   31   94 1    
    63   31   95 1    
    64   32   33 am   BACKBONE|DICT|INTERRES
    65   32   96 1    
    66   33   34 2    
    67   33   35 1    
    68   35   36 1    
    69   35   37 1    
    70   35   97 1    
    71   36   98 1    
    72   36   99 1    
    73   36  100 1    
    74   37   38 am   BACKBONE|DICT|INTERRES
    75   37  101 1    
    76   38   39 2    
    77   38   40 1    
    78   40   41 1    
    79   40   42 1    
    80   40  102 1    
    81   41  103 1    
    82   41  104 1    
    83   41  105 1    
    84   42   43 am   BACKBONE|DICT|INTERRES
    85   42  106 1    
    86   43   44 2    
    87   43   45 1    
    88   45   46 1    
    89   45   49 1    
    90   45  107 1    
    91   46   47 1    
    92   46  108 1    
    93   46  109 1    
    94   47   48 1    
    95   48  110 1    
    96   48  111 1    
    97   49   50 am   BACKBONE|DICT|INTERRES
    98   49  112 1    
    99   50   51 2    
   100   50   52 1    
   101   52   53 1    
   102   52   54 1    
   103   52  113 1    
   104   53  114 1    
   105   53  115 1    
   106   53  116 1    
   107   54   55 am   BACKBONE|DICT|INTERRES
   108   54  117 1    
   109   55   56 2    
   110   55   57 1    
   111   57   58 1    
   112   57   59 1    
   113   57  118 1    
   114   58  119 1    
   115   58  120 1    
   116   58  121 1    
   117   59   60 am   BACKBONE|DICT|INTERRES
   118   59  122 1    
   119   60   61 2    
   120   60   62 1    
   121   62   63 1    
   122   62   64 1    
   123   62  123 1    
   124   63  124 1    
   125   63  125 1    
   126   63  126 1    
   127   64   65 am   BACKBONE|DICT|INTERRES
   128   64  127 1    
   129   65   66 2    
@<TRIPOS>SUBSTRUCTURE
     1 UNK         1 GROUP             0       ****    0 ROOT    
