@<TRIPOS>MOLECULE
3R135
127   129    1
SMALL
USER_CHARGES


@<TRIPOS>ATOM
      1 CA        -85.2060   25.1981  -72.5764 C.3       0 UNK        -0.1998 
      2 C         -83.7391   25.3915  -72.9299 C.2       0 UNK         0.4909 
      3 O         -83.0600   24.4182  -73.2608 O.2       0 UNK        -0.5240 
      4 N         -83.2547   26.6411  -72.8712 N.am      1 UNK        -0.4739 
      5 CA        -81.8826   27.1024  -73.1470 C.3       1 UNK         0.0864 
      6 C6        -80.7972   26.4372  -72.2583 C.3       11 UNK        -0.0881 
      7 S7        -81.0247   26.8432  -70.4936 S.3       11 UNK        -0.2682 
      8 C8        -79.3181   26.7169  -69.8465 C.3       11 UNK         0.0289 
      9 C9        -78.3117   27.7531  -70.3580 C.ar      11 UNK        -0.0687 
     10 C10       -78.6856   28.8749  -71.1075 C.ar      11 UNK        -0.0823 
     11 C11       -77.7270   29.7800  -71.5681 C.ar      11 UNK        -0.0830 
     12 C12       -76.3839   29.5911  -71.2327 C.ar      11 UNK        -0.1021 
     13 C13       -75.9843   28.4786  -70.4793 C.ar      11 UNK        -0.0753 
     14 C14       -76.9588   27.5684  -70.0551 C.ar      11 UNK        -0.0933 
     15 C15       -74.5223   28.1898  -70.1229 C.3       11 UNK         0.0166 
     16 S16       -73.3821   29.6136  -70.2393 S.3       11 UNK        -0.2615 
     17 C17       -72.4063   29.2147  -71.7347 C.3       11 UNK        -0.0865 
     18 CA        -73.1605   29.4808  -73.0682 C.3       10 UNK         0.0862 
     19 C         -73.3644   30.9833  -73.4326 C.2       10 UNK         0.5551 
     20 N         -73.8814   31.2722  -74.6207 N.am      10 UNK        -0.7319 
     21 O         -73.0542   31.8873  -72.6610 O.2       10 UNK        -0.5018 
     22 N         -72.6236   28.7057  -74.1966 N.am      10 UNK        -0.4509 
     23 C         -71.4033   28.8429  -74.7307 C.2       10 UNK         0.4899 
     24 O         -70.5049   29.5210  -74.2291 O.2       10 UNK        -0.4839 
     25 CA        -71.1676   28.1246  -76.0737 C.3       9 UNK         0.0222 
     26 CB        -69.6827   28.0958  -76.4960 C.3       9 UNK        -0.1966 
     27 N         -71.7589   26.7823  -76.1328 N.am      9 UNK        -0.4218 
     28 C         -71.4383   25.7190  -75.3767 C.2       9 UNK         0.5020 
     29 O         -70.5857   25.7472  -74.4877 O.2       9 UNK        -0.5274 
     30 CA        -72.1775   24.3899  -75.6393 C.3       8 UNK         0.0270 
     31 CB        -72.9486   23.9373  -74.3908 C.3       8 UNK        -0.1976 
     32 N         -73.0982   24.4322  -76.7789 N.am      8 UNK        -0.4313 
     33 C         -72.7229   24.3626  -78.0619 C.2       8 UNK         0.5041 
     34 O         -71.5558   24.2161  -78.4272 O.2       8 UNK        -0.5577 
     35 CA        -73.8297   24.5078  -79.1205 C.3       7 UNK         0.0284 
     36 CB        -74.4694   23.1420  -79.4191 C.3       7 UNK        -0.1958 
     37 N         -74.8832   25.4730  -78.7821 N.am      7 UNK        -0.4454 
     38 C         -74.7034   26.7722  -78.5062 C.2       7 UNK         0.5089 
     39 O         -73.5970   27.3003  -78.3982 O.2       7 UNK        -0.5125 
     40 CA        -75.9719   27.6314  -78.3575 C.3       6 UNK         0.0408 
     41 CB        -77.0794   27.2431  -79.3563 C.3       6 UNK        -0.1791 
     42 N         -76.5167   27.5988  -77.0017 N.am      6 UNK        -0.4762 
     43 C         -75.9988   28.2388  -75.9438 C.2       6 UNK         0.5007 
     44 O         -74.9466   28.8773  -75.9718 O.2       6 UNK        -0.5032 
     45 CA        -76.7943   28.1503  -74.6296 C.3       5 UNK         0.0783 
     46 C46       -78.0253   29.0924  -74.6291 C.3       11 UNK        -0.0857 
     47 S47       -77.5514   30.7964  -74.1663 S.3       11 UNK        -0.2512 
     48 C48       -78.1504   30.9498  -72.4477 C.3       11 UNK         0.0225 
     49 N         -77.1453   26.7582  -74.3518 N.am      5 UNK        -0.4615 
     50 C         -76.3804   25.9375  -73.6178 C.2       4 UNK         0.5053 
     51 O         -75.3646   26.3006  -73.0270 O.2       4 UNK        -0.5105 
     52 CA        -76.7871   24.4537  -73.5412 C.3       4 UNK         0.0263 
     53 CB        -77.5860   24.1705  -72.2611 C.3       4 UNK        -0.1981 
     54 N         -77.5431   23.9931  -74.7080 N.am      4 UNK        -0.4224 
     55 C         -77.0290   23.8861  -75.9410 C.2       3 UNK         0.4895 
     56 O         -75.8495   24.1084  -76.2114 O.2       3 UNK        -0.5091 
     57 CA        -77.9958   23.5087  -77.0768 C.3       3 UNK         0.0250 
     58 CB        -77.9974   21.9875  -77.2925 C.3       3 UNK        -0.1996 
     59 N         -79.3759   23.9779  -76.8953 N.am      3 UNK        -0.4254 
     60 C         -79.7545   25.2526  -76.7165 C.2       2 UNK         0.5004 
     61 O         -78.9563   26.1850  -76.6083 O.2       2 UNK        -0.5226 
     62 CA        -81.2643   25.5371  -76.6231 C.3       2 UNK         0.0269 
     63 CB        -82.1545   24.3860  -77.1352 C.3       2 UNK        -0.1926 
     64 N         -81.6327   25.8389  -75.2415 N.am      2 UNK        -0.4687 
     65 C         -81.5100   27.0286  -74.6421 C.2       1 UNK         0.5165 
     66 O         -81.1409   28.0503  -75.2205 O.2       1 UNK        -0.5079 
     67 H67       -85.7433   24.7736  -73.4242 H         1 UNK         0.0900 
     68 H68       -85.3002   24.5121  -71.7351 H         1 UNK         0.0900 
     69 H69       -85.6882   26.1369  -72.3041 H         1 UNK         0.0900 
     70 H70       -83.8910   27.3820  -72.6103 H         1 UNK         0.2959 
     71 H71       -81.8848   28.1668  -72.9040 H         1 UNK         0.1079 
     72 H72       -80.8061   25.3526  -72.3693 H         1 UNK         0.0837 
     73 H73       -79.8032   26.7628  -72.5690 H         1 UNK         0.0837 
     74 H74       -79.3669   26.8018  -68.7602 H         1 UNK         0.0685 
     75 H75       -78.9458   25.7137  -70.0565 H         1 UNK         0.0685 
     76 H76       -79.7225   29.0458  -71.3559 H         1 UNK         0.1434 
     77 H77       -75.6580   30.3074  -71.5872 H         1 UNK         0.1329 
     78 H78       -76.6589   26.7017  -69.4816 H         1 UNK         0.1335 
     79 H79       -74.1649   27.3749  -70.7537 H         1 UNK         0.0680 
     80 H80       -74.4759   27.8218  -69.0969 H         1 UNK         0.0680 
     81 H81       -71.4757   29.7837  -71.7043 H         1 UNK         0.1032 
     82 H82       -72.1097   28.1663  -71.6757 H         1 UNK         0.1032 
     83 H83       -74.1635   29.0825  -72.9366 H         1 UNK         0.0461 
     84 H84       -74.0235   32.2343  -74.8818 H         1 UNK         0.3453 
     85 H85       -74.1740   30.5249  -75.2420 H         1 UNK         0.3453 
     86 H86       -73.3131   28.1929  -74.7310 H         1 UNK         0.2984 
     87 H87       -71.7030   28.7138  -76.8196 H         1 UNK         0.0554 
     88 H88       -69.2843   29.1065  -76.5923 H         1 UNK         0.0847 
     89 H89       -69.5544   27.6054  -77.4610 H         1 UNK         0.0847 
     90 H90       -69.0631   27.5719  -75.7676 H         1 UNK         0.0847 
     91 H91       -72.4726   26.6687  -76.8468 H         1 UNK         0.3141 
     92 H92       -71.4133   23.6381  -75.8473 H         1 UNK         0.0743 
     93 H93       -72.2758   23.7862  -73.5456 H         1 UNK         0.0784 
     94 H94       -73.6806   24.6842  -74.0926 H         1 UNK         0.0784 
     95 H95       -73.4738   22.9974  -74.5618 H         1 UNK         0.0784 
     96 H96       -74.0955   24.4860  -76.5701 H         1 UNK         0.3213 
     97 H97       -73.3526   24.8659  -80.0351 H         1 UNK         0.0855 
     98 H98       -74.9885   22.7412  -78.5479 H         1 UNK         0.0814 
     99 H99       -73.7121   22.4124  -79.7095 H         1 UNK         0.0814 
    100 H100      -75.1851   23.2061  -80.2389 H         1 UNK         0.0814 
    101 H101      -75.8288   25.1261  -78.8092 H         1 UNK         0.3105 
    102 H102      -75.6836   28.6608  -78.5810 H         1 UNK         0.0547 
    103 H103      -77.8839   27.9787  -79.3490 H         1 UNK         0.0837 
    104 H104      -76.6938   27.2016  -80.3760 H         1 UNK         0.0837 
    105 H105      -77.5247   26.2743  -79.1298 H         1 UNK         0.0837 
    106 H106      -77.3897   27.0889  -76.8765 H         1 UNK         0.3020 
    107 H107      -76.1310   28.4914  -73.8351 H         1 UNK         0.1245 
    108 H108      -78.7772   28.7367  -73.9251 H         1 UNK         0.0781 
    109 H109      -78.5272   29.1066  -75.5988 H         1 UNK         0.0781 
    110 H110      -79.2368   31.0493  -72.4647 H         1 UNK         0.0836 
    111 H111      -77.7673   31.8781  -72.0214 H         1 UNK         0.0836 
    112 H112      -77.9234   26.3793  -74.8795 H         1 UNK         0.3022 
    113 H113      -75.8667   23.8688  -73.4920 H         1 UNK         0.0747 
    114 H114      -77.7707   23.1034  -72.1363 H         1 UNK         0.0793 
    115 H115      -77.0409   24.5096  -71.3789 H         1 UNK         0.0793 
    116 H116      -78.5476   24.6790  -72.2667 H         1 UNK         0.0793 
    117 H117      -78.5211   23.7830  -74.5740 H         1 UNK         0.3047 
    118 H118      -77.6164   23.9772  -77.9862 H         1 UNK         0.0822 
    119 H119      -76.9843   21.6109  -77.4418 H         1 UNK         0.0807 
    120 H120      -78.5750   21.7115  -78.1750 H         1 UNK         0.0807 
    121 H121      -78.4173   21.4582  -76.4361 H         1 UNK         0.0807 
    122 H122      -80.0995   23.2765  -76.9619 H         1 UNK         0.2946 
    123 H123      -81.4567   26.4133  -77.2469 H         1 UNK         0.1144 
    124 H124      -83.2032   24.6841  -77.1443 H         1 UNK         0.0793 
    125 H125      -82.0774   23.4931  -76.5133 H         1 UNK         0.0793 
    126 H126      -81.8963   24.1093  -78.1587 H         1 UNK         0.0793 
    127 H127      -81.9958   25.0754  -74.6752 H         1 UNK         0.2896 
@<TRIPOS>BOND
     1    1    2 1    
     2    1   67 1    
     3    1   68 1    
     4    1   69 1    
     5    2    3 2    
     6    2    4 am   BACKBONE|DICT|INTERRES
     7    4    5 1    
     8    4   70 1    
     9    5    6 1    
    10    5   65 1    
    11    5   71 1    
    12    6    7 1    
    13    6   72 1    
    14    6   73 1    
    15    7    8 1    
    16    8    9 1    
    17    8   74 1    
    18    8   75 1    
    19    9   10 ar   
    20    9   14 ar   
    21   10   11 ar   
    22   10   76 1    
    23   11   12 ar   
    24   11   48 1    
    25   12   13 ar   
    26   12   77 1    
    27   13   14 ar   
    28   13   15 1    
    29   14   78 1    
    30   15   16 1    
    31   15   79 1    
    32   15   80 1    
    33   16   17 1    
    34   17   18 1    
    35   17   81 1    
    36   17   82 1    
    37   18   19 1    
    38   18   22 1    
    39   18   83 1    
    40   19   20 am   BACKBONE|DICT|INTERRES
    41   19   21 2    
    42   20   84 1    
    43   20   85 1    
    44   22   23 am   BACKBONE|DICT|INTERRES
    45   22   86 1    
    46   23   24 2    
    47   23   25 1    
    48   25   26 1    
    49   25   27 1    
    50   25   87 1    
    51   26   88 1    
    52   26   89 1    
    53   26   90 1    
    54   27   28 am   BACKBONE|DICT|INTERRES
    55   27   91 1    
    56   28   29 2    
    57   28   30 1    
    58   30   31 1    
    59   30   32 1    
    60   30   92 1    
    61   31   93 1    
    62   31   94 1    
    63   31   95 1    
    64   32   33 am   BACKBONE|DICT|INTERRES
    65   32   96 1    
    66   33   34 2    
    67   33   35 1    
    68   35   36 1    
    69   35   37 1    
    70   35   97 1    
    71   36   98 1    
    72   36   99 1    
    73   36  100 1    
    74   37   38 am   BACKBONE|DICT|INTERRES
    75   37  101 1    
    76   38   39 2    
    77   38   40 1    
    78   40   41 1    
    79   40   42 1    
    80   40  102 1    
    81   41  103 1    
    82   41  104 1    
    83   41  105 1    
    84   42   43 am   BACKBONE|DICT|INTERRES
    85   42  106 1    
    86   43   44 2    
    87   43   45 1    
    88   45   46 1    
    89   45   49 1    
    90   45  107 1    
    91   46   47 1    
    92   46  108 1    
    93   46  109 1    
    94   47   48 1    
    95   48  110 1    
    96   48  111 1    
    97   49   50 am   BACKBONE|DICT|INTERRES
    98   49  112 1    
    99   50   51 2    
   100   50   52 1    
   101   52   53 1    
   102   52   54 1    
   103   52  113 1    
   104   53  114 1    
   105   53  115 1    
   106   53  116 1    
   107   54   55 am   BACKBONE|DICT|INTERRES
   108   54  117 1    
   109   55   56 2    
   110   55   57 1    
   111   57   58 1    
   112   57   59 1    
   113   57  118 1    
   114   58  119 1    
   115   58  120 1    
   116   58  121 1    
   117   59   60 am   BACKBONE|DICT|INTERRES
   118   59  122 1    
   119   60   61 2    
   120   60   62 1    
   121   62   63 1    
   122   62   64 1    
   123   62  123 1    
   124   63  124 1    
   125   63  125 1    
   126   63  126 1    
   127   64   65 am   BACKBONE|DICT|INTERRES
   128   64  127 1    
   129   65   66 2    
@<TRIPOS>SUBSTRUCTURE
     1 UNK         1 GROUP             0       ****    0 ROOT    
