@<TRIPOS>MOLECULE
3R135
127   129    1
SMALL
USER_CHARGES


@<TRIPOS>ATOM
      1 CA        -81.0127   24.6808  -67.2891 C.3       0 UNK        -0.1998 
      2 C         -80.9415   24.7508  -68.8073 C.2       0 UNK         0.4909 
      3 O         -81.7192   24.0808  -69.4884 O.2       0 UNK        -0.5240 
      4 N         -80.0221   25.5638  -69.3416 N.am      1 UNK        -0.4739 
      5 CA        -79.7792   25.7225  -70.7802 C.3       1 UNK         0.0864 
      6 C6        -78.9419   26.9882  -71.0881 C.3       11 UNK        -0.0881 
      7 S7        -79.7395   28.5226  -70.5009 S.3       11 UNK        -0.2682 
      8 C8        -80.2919   29.2842  -72.0697 C.3       11 UNK         0.0289 
      9 C9        -79.1934   29.8361  -72.9854 C.ar      11 UNK        -0.0687 
     10 C10       -79.5700   30.3499  -74.2312 C.ar      11 UNK        -0.0823 
     11 C11       -78.6178   30.8673  -75.1153 C.ar      11 UNK        -0.0830 
     12 C12       -77.2681   30.8599  -74.7529 C.ar      11 UNK        -0.1021 
     13 C13       -76.8732   30.3471  -73.5155 C.ar      11 UNK        -0.0753 
     14 C14       -77.8368   29.8527  -72.6329 C.ar      11 UNK        -0.0933 
     15 C15       -75.4019   30.2821  -73.1443 C.3       11 UNK         0.0166 
     16 S16       -74.7954   31.8545  -72.4694 S.3       11 UNK        -0.2615 
     17 C17       -73.4358   31.2792  -71.3920 C.3       11 UNK        -0.0865 
     18 CA        -72.1167   30.9960  -72.1597 C.3       10 UNK         0.0862 
     19 C         -70.9031   30.9120  -71.1875 C.2       10 UNK         0.5551 
     20 N         -70.1817   29.7995  -71.1124 N.am      10 UNK        -0.7319 
     21 O         -70.6030   31.8821  -70.4959 O.2       10 UNK        -0.5018 
     22 N         -72.2438   29.8212  -73.0394 N.am      10 UNK        -0.4509 
     23 C         -71.6253   29.6708  -74.2138 C.2       10 UNK         0.4899 
     24 O         -70.9133   30.5375  -74.7222 O.2       10 UNK        -0.4839 
     25 CA        -71.8161   28.3416  -74.9693 C.3       9 UNK         0.0222 
     26 CB        -70.6037   27.4146  -74.7584 C.3       9 UNK        -0.1966 
     27 N         -73.0729   27.6154  -74.7302 N.am      9 UNK        -0.4218 
     28 C         -73.5149   27.0027  -73.6216 C.2       9 UNK         0.5020 
     29 O         -72.9860   27.1196  -72.5158 O.2       9 UNK        -0.5274 
     30 CA        -74.7487   26.0907  -73.7772 C.3       8 UNK         0.0270 
     31 CB        -76.0544   26.8769  -73.5918 C.3       8 UNK        -0.1976 
     32 N         -74.7787   25.3974  -75.0681 N.am      8 UNK        -0.4313 
     33 C         -73.9205   24.4331  -75.4340 C.2       8 UNK         0.5041 
     34 O         -73.0600   23.9588  -74.6918 O.2       8 UNK        -0.5577 
     35 CA        -74.0237   23.9296  -76.8822 C.3       7 UNK         0.0284 
     36 CB        -75.0960   22.8342  -77.0147 C.3       7 UNK        -0.1958 
     37 N         -74.3067   25.0270  -77.8103 N.am      7 UNK        -0.4454 
     38 C         -73.3851   25.8986  -78.2469 C.2       7 UNK         0.5089 
     39 O         -72.1863   25.8190  -77.9800 O.2       7 UNK        -0.5125 
     40 CA        -73.8792   27.0655  -79.1223 C.3       6 UNK         0.0408 
     41 CB        -73.7747   26.6985  -80.6109 C.3       6 UNK        -0.1791 
     42 N         -75.2521   27.4811  -78.8217 N.am      6 UNK        -0.4762 
     43 C         -75.6408   28.0725  -77.6818 C.2       6 UNK         0.5007 
     44 O         -74.8709   28.3614  -76.7675 O.2       6 UNK        -0.5032 
     45 CA        -77.1524   28.3267  -77.5107 C.3       5 UNK         0.0783 
     46 C46       -77.5320   29.7107  -78.0880 C.3       11 UNK        -0.0857 
     47 S47       -79.2622   30.1584  -77.7230 S.3       11 UNK        -0.2512 
     48 C48       -79.0548   31.4474  -76.4531 C.3       11 UNK         0.0225 
     49 N         -77.9639   27.2449  -78.0865 N.am      5 UNK        -0.4615 
     50 C         -77.9113   25.9644  -77.7030 C.2       4 UNK         0.5053 
     51 O         -77.1735   25.5466  -76.8054 O.2       4 UNK        -0.5105 
     52 CA        -78.7601   24.9777  -78.5081 C.3       4 UNK         0.0263 
     53 CB        -78.0529   24.6047  -79.8251 C.3       4 UNK        -0.1981 
     54 N         -78.9683   23.7829  -77.6996 N.am      4 UNK        -0.4224 
     55 C         -79.9558   22.8928  -77.8505 C.2       3 UNK         0.4895 
     56 O         -80.7990   22.9531  -78.7465 O.2       3 UNK        -0.5091 
     57 CA        -80.0245   21.7327  -76.8362 C.3       3 UNK         0.0250 
     58 CB        -79.4422   20.4508  -77.4547 C.3       3 UNK        -0.1996 
     59 N         -79.3456   21.9983  -75.5616 N.am      3 UNK        -0.4254 
     60 C         -79.7147   22.9352  -74.6775 C.2       2 UNK         0.5004 
     61 O         -80.6918   23.6744  -74.8308 O.2       2 UNK        -0.5226 
     62 CA        -78.8305   23.0894  -73.4311 C.3       2 UNK         0.0269 
     63 CB        -77.3476   23.2991  -73.8041 C.3       2 UNK        -0.1926 
     64 N         -79.3301   24.2268  -72.6619 N.am      2 UNK        -0.4687 
     65 C         -79.0938   24.4714  -71.3701 C.2       1 UNK         0.5165 
     66 O         -78.3523   23.7787  -70.6673 O.2       1 UNK        -0.5079 
     67 H67       -82.0028   24.9794  -66.9455 H         1 UNK         0.0900 
     68 H68       -80.2788   25.3333  -66.8162 H         1 UNK         0.0900 
     69 H69       -80.8273   23.6613  -66.9517 H         1 UNK         0.0900 
     70 H70       -79.4047   26.0857  -68.7366 H         1 UNK         0.2959 
     71 H71       -80.7508   25.8295  -71.2683 H         1 UNK         0.1079 
     72 H72       -77.9566   26.9186  -70.6228 H         1 UNK         0.0837 
     73 H73       -78.7617   27.0730  -72.1613 H         1 UNK         0.0837 
     74 H74       -80.8833   28.5510  -72.6202 H         1 UNK         0.0685 
     75 H75       -80.9703   30.1016  -71.8214 H         1 UNK         0.0685 
     76 H76       -80.6137   30.3500  -74.5159 H         1 UNK         0.1434 
     77 H77       -76.5212   31.2496  -75.4308 H         1 UNK         0.1329 
     78 H78       -77.5112   29.4694  -71.6773 H         1 UNK         0.1335 
     79 H79       -74.8164   30.0188  -74.0262 H         1 UNK         0.0680 
     80 H80       -75.2376   29.4884  -72.4157 H         1 UNK         0.0680 
     81 H81       -73.7522   30.4026  -70.8238 H         1 UNK         0.1032 
     82 H82       -73.2822   32.0666  -70.6513 H         1 UNK         0.1032 
     83 H83       -71.9197   31.8697  -72.7840 H         1 UNK         0.0461 
     84 H84       -69.3954   29.7607  -70.4831 H         1 UNK         0.3453 
     85 H85       -70.4230   28.9976  -71.6722 H         1 UNK         0.3453 
     86 H86       -72.7261   29.0117  -72.6612 H         1 UNK         0.2984 
     87 H87       -71.8434   28.6014  -76.0288 H         1 UNK         0.0554 
     88 H88       -70.6791   26.5215  -75.3794 H         1 UNK         0.0847 
     89 H89       -70.5110   27.0939  -73.7205 H         1 UNK         0.0847 
     90 H90       -69.6741   27.9181  -75.0274 H         1 UNK         0.0847 
     91 H91       -73.6857   27.5829  -75.5420 H         1 UNK         0.3141 
     92 H92       -74.6977   25.3320  -72.9933 H         1 UNK         0.0743 
     93 H93       -76.1523   27.6747  -74.3274 H         1 UNK         0.0784 
     94 H94       -76.9291   26.2353  -73.6852 H         1 UNK         0.0784 
     95 H95       -76.0961   27.3259  -72.5998 H         1 UNK         0.0784 
     96 H96       -75.5034   25.6714  -75.7245 H         1 UNK         0.3213 
     97 H97       -73.0611   23.4875  -77.1496 H         1 UNK         0.0855 
     98 H98       -76.0860   23.1900  -76.7345 H         1 UNK         0.0814 
     99 H99       -74.8634   21.9870  -76.3683 H         1 UNK         0.0814 
    100 H100      -75.1525   22.4557  -78.0354 H         1 UNK         0.0814 
    101 H101      -75.2766   25.1937  -78.0375 H         1 UNK         0.3105 
    102 H102      -73.2221   27.9175  -78.9347 H         1 UNK         0.0547 
    103 H103      -72.7551   26.4092  -80.8700 H         1 UNK         0.0837 
    104 H104      -74.4254   25.8621  -80.8694 H         1 UNK         0.0837 
    105 H105      -74.0406   27.5419  -81.2482 H         1 UNK         0.0837 
    106 H106      -75.9530   27.2830  -79.5212 H         1 UNK         0.3020 
    107 H107      -77.3474   28.3401  -76.4357 H         1 UNK         0.1245 
    108 H108      -76.8708   30.4885  -77.7021 H         1 UNK         0.0781 
    109 H109      -77.4014   29.7222  -79.1718 H         1 UNK         0.0781 
    110 H110      -78.3438   32.1988  -76.8002 H         1 UNK         0.0836 
    111 H111      -80.0042   31.9706  -76.3290 H         1 UNK         0.0836 
    112 H112      -78.6021   27.5144  -78.8214 H         1 UNK         0.3022 
    113 H113      -79.7259   25.4416  -78.7202 H         1 UNK         0.0747 
    114 H114      -78.6553   23.9156  -80.4174 H         1 UNK         0.0793 
    115 H115      -77.8756   25.4854  -80.4434 H         1 UNK         0.0793 
    116 H116      -77.0878   24.1297  -79.6440 H         1 UNK         0.0793 
    117 H117      -78.3407   23.7035  -76.9105 H         1 UNK         0.3047 
    118 H118      -81.0808   21.5590  -76.6192 H         1 UNK         0.0822 
    119 H119      -79.5654   19.5960  -76.7894 H         1 UNK         0.0807 
    120 H120      -78.3792   20.5561  -77.6761 H         1 UNK         0.0807 
    121 H121      -79.9464   20.2044  -78.3904 H         1 UNK         0.0807 
    122 H122      -78.5390   21.4263  -75.3563 H         1 UNK         0.2946 
    123 H123      -78.9345   22.1841  -72.8285 H         1 UNK         0.1144 
    124 H124      -76.9135   22.3977  -74.2371 H         1 UNK         0.0793 
    125 H125      -76.7405   23.5523  -72.9351 H         1 UNK         0.0793 
    126 H126      -77.2330   24.0982  -74.5348 H         1 UNK         0.0793 
    127 H127      -79.9934   24.7955  -73.1758 H         1 UNK         0.2896 
@<TRIPOS>BOND
     1    1    2 1    
     2    1   67 1    
     3    1   68 1    
     4    1   69 1    
     5    2    3 2    
     6    2    4 am   BACKBONE|DICT|INTERRES
     7    4    5 1    
     8    4   70 1    
     9    5    6 1    
    10    5   65 1    
    11    5   71 1    
    12    6    7 1    
    13    6   72 1    
    14    6   73 1    
    15    7    8 1    
    16    8    9 1    
    17    8   74 1    
    18    8   75 1    
    19    9   10 ar   
    20    9   14 ar   
    21   10   11 ar   
    22   10   76 1    
    23   11   12 ar   
    24   11   48 1    
    25   12   13 ar   
    26   12   77 1    
    27   13   14 ar   
    28   13   15 1    
    29   14   78 1    
    30   15   16 1    
    31   15   79 1    
    32   15   80 1    
    33   16   17 1    
    34   17   18 1    
    35   17   81 1    
    36   17   82 1    
    37   18   19 1    
    38   18   22 1    
    39   18   83 1    
    40   19   20 am   BACKBONE|DICT|INTERRES
    41   19   21 2    
    42   20   84 1    
    43   20   85 1    
    44   22   23 am   BACKBONE|DICT|INTERRES
    45   22   86 1    
    46   23   24 2    
    47   23   25 1    
    48   25   26 1    
    49   25   27 1    
    50   25   87 1    
    51   26   88 1    
    52   26   89 1    
    53   26   90 1    
    54   27   28 am   BACKBONE|DICT|INTERRES
    55   27   91 1    
    56   28   29 2    
    57   28   30 1    
    58   30   31 1    
    59   30   32 1    
    60   30   92 1    
    61   31   93 1    
    62   31   94 1    
    63   31   95 1    
    64   32   33 am   BACKBONE|DICT|INTERRES
    65   32   96 1    
    66   33   34 2    
    67   33   35 1    
    68   35   36 1    
    69   35   37 1    
    70   35   97 1    
    71   36   98 1    
    72   36   99 1    
    73   36  100 1    
    74   37   38 am   BACKBONE|DICT|INTERRES
    75   37  101 1    
    76   38   39 2    
    77   38   40 1    
    78   40   41 1    
    79   40   42 1    
    80   40  102 1    
    81   41  103 1    
    82   41  104 1    
    83   41  105 1    
    84   42   43 am   BACKBONE|DICT|INTERRES
    85   42  106 1    
    86   43   44 2    
    87   43   45 1    
    88   45   46 1    
    89   45   49 1    
    90   45  107 1    
    91   46   47 1    
    92   46  108 1    
    93   46  109 1    
    94   47   48 1    
    95   48  110 1    
    96   48  111 1    
    97   49   50 am   BACKBONE|DICT|INTERRES
    98   49  112 1    
    99   50   51 2    
   100   50   52 1    
   101   52   53 1    
   102   52   54 1    
   103   52  113 1    
   104   53  114 1    
   105   53  115 1    
   106   53  116 1    
   107   54   55 am   BACKBONE|DICT|INTERRES
   108   54  117 1    
   109   55   56 2    
   110   55   57 1    
   111   57   58 1    
   112   57   59 1    
   113   57  118 1    
   114   58  119 1    
   115   58  120 1    
   116   58  121 1    
   117   59   60 am   BACKBONE|DICT|INTERRES
   118   59  122 1    
   119   60   61 2    
   120   60   62 1    
   121   62   63 1    
   122   62   64 1    
   123   62  123 1    
   124   63  124 1    
   125   63  125 1    
   126   63  126 1    
   127   64   65 am   BACKBONE|DICT|INTERRES
   128   64  127 1    
   129   65   66 2    
@<TRIPOS>SUBSTRUCTURE
     1 UNK         1 GROUP             0       ****    0 ROOT    
