@<TRIPOS>MOLECULE
3R135
127   129    1
SMALL
USER_CHARGES


@<TRIPOS>ATOM
      1 CA        -84.0292   29.4484  -71.0355 C.3       0 UNK        -0.1998 
      2 C         -83.0014   28.3563  -71.2916 C.2       0 UNK         0.4909 
      3 O         -83.2586   27.1940  -70.9773 O.2       0 UNK        -0.5240 
      4 N         -81.8465   28.7268  -71.8641 N.am      1 UNK        -0.4739 
      5 CA        -80.7055   27.8523  -72.1850 C.3       1 UNK         0.0864 
      6 C6        -80.0031   27.2691  -70.9240 C.3       11 UNK        -0.0881 
      7 S7        -79.2074   28.5768  -69.9262 S.3       11 UNK        -0.2682 
      8 C8        -77.4615   28.4355  -70.4389 C.3       11 UNK         0.0289 
      9 C9        -77.2723   28.7889  -71.9074 C.ar      11 UNK        -0.0687 
     10 C10       -77.2890   27.7822  -72.8775 C.ar      11 UNK        -0.0823 
     11 C11       -77.1725   28.0983  -74.2329 C.ar      11 UNK        -0.0830 
     12 C12       -77.0124   29.4329  -74.6144 C.ar      11 UNK        -0.1021 
     13 C13       -76.9872   30.4498  -73.6548 C.ar      11 UNK        -0.0753 
     14 C14       -77.1139   30.1218  -72.3008 C.ar      11 UNK        -0.0933 
     15 C15       -76.8887   31.9026  -74.0972 C.3       11 UNK         0.0166 
     16 S16       -75.1781   32.4008  -74.4661 S.3       11 UNK        -0.2615 
     17 C17       -74.5464   32.8446  -72.8120 C.3       11 UNK        -0.0865 
     18 CA        -73.1442   32.2473  -72.5282 C.3       10 UNK         0.0862 
     19 C         -72.5421   32.8506  -71.2243 C.2       10 UNK         0.5551 
     20 N         -72.2996   32.0718  -70.1766 N.am      10 UNK        -0.7319 
     21 O         -72.2864   34.0509  -71.1665 O.2       10 UNK        -0.5018 
     22 N         -73.1611   30.7759  -72.5742 N.am      10 UNK        -0.4509 
     23 C         -72.0829   30.0017  -72.7487 C.2       10 UNK         0.4899 
     24 O         -70.9468   30.4404  -72.9375 O.2       10 UNK        -0.4839 
     25 CA        -72.2833   28.4751  -72.6672 C.3       9 UNK         0.0222 
     26 CB        -73.7318   28.0366  -72.3540 C.3       9 UNK        -0.1966 
     27 N         -71.7733   27.7808  -73.8558 N.am      9 UNK        -0.4218 
     28 C         -72.1589   27.9585  -75.1287 C.2       9 UNK         0.5020 
     29 O         -73.0158   28.7700  -75.4829 O.2       9 UNK        -0.5274 
     30 CA        -71.4923   27.0736  -76.1961 C.3       8 UNK         0.0270 
     31 CB        -70.7623   25.8326  -75.6374 C.3       8 UNK        -0.1976 
     32 N         -72.5157   26.6598  -77.1533 N.am      8 UNK        -0.4313 
     33 C         -72.3288   26.4646  -78.4621 C.2       8 UNK         0.5041 
     34 O         -71.2358   26.5694  -79.0239 O.2       8 UNK        -0.5577 
     35 CA        -73.5882   26.0873  -79.2662 C.3       7 UNK         0.0284 
     36 CB        -73.3411   26.0184  -80.7892 C.3       7 UNK        -0.1958 
     37 N         -74.2085   24.8503  -78.7730 N.am      7 UNK        -0.4454 
     38 C         -73.6824   23.6148  -78.7590 C.2       7 UNK         0.5089 
     39 O         -72.5759   23.3230  -79.2160 O.2       7 UNK        -0.5125 
     40 CA        -74.5648   22.5253  -78.1130 C.3       6 UNK         0.0408 
     41 CB        -73.8510   21.1638  -77.9733 C.3       6 UNK        -0.1791 
     42 N         -75.1314   22.9595  -76.8300 N.am      6 UNK        -0.4762 
     43 C         -74.4481   23.3243  -75.7303 C.2       6 UNK         0.5007 
     44 O         -73.2248   23.2413  -75.6238 O.2       6 UNK        -0.5032 
     45 CA        -75.2525   23.9182  -74.5534 C.3       5 UNK         0.0783 
     46 C46       -75.0436   25.4482  -74.4407 C.3       11 UNK        -0.0857 
     47 S47       -75.6688   26.4100  -75.8671 S.3       11 UNK        -0.2512 
     48 C48       -77.2866   27.0086  -75.2881 C.3       11 UNK         0.0225 
     49 N         -76.6755   23.5810  -74.5977 N.am      5 UNK        -0.4615 
     50 C         -77.1912   22.3796  -74.3183 C.2       4 UNK         0.5053 
     51 O         -76.5229   21.4264  -73.9178 O.2       4 UNK        -0.5105 
     52 CA        -78.7067   22.2043  -74.5251 C.3       4 UNK         0.0263 
     53 CB        -79.4354   22.2397  -73.1718 C.3       4 UNK        -0.1981 
     54 N         -79.3357   23.1789  -75.4275 N.am      4 UNK        -0.4224 
     55 C         -79.0472   23.3526  -76.7281 C.2       3 UNK         0.4895 
     56 O         -78.0986   22.8029  -77.2896 O.2       3 UNK        -0.5091 
     57 CA        -79.9615   24.2831  -77.5481 C.3       3 UNK         0.0250 
     58 CB        -80.5178   23.5490  -78.7812 C.3       3 UNK        -0.1996 
     59 N         -81.0874   24.7908  -76.7566 N.am      3 UNK        -0.4254 
     60 C         -81.1867   26.0348  -76.2728 C.2       2 UNK         0.5004 
     61 O         -80.3792   26.9304  -76.5239 O.2       2 UNK        -0.5226 
     62 CA        -82.3788   26.3446  -75.3427 C.3       2 UNK         0.0269 
     63 CB        -83.1827   25.1011  -74.8946 C.3       2 UNK        -0.1926 
     64 N         -81.9565   27.1296  -74.1753 N.am      2 UNK        -0.4687 
     65 C         -81.0387   26.7849  -73.2560 C.2       1 UNK         0.5165 
     66 O         -80.4530   25.6992  -73.2534 O.2       1 UNK        -0.5079 
     67 H67       -83.6758   30.4270  -71.3603 H         1 UNK         0.0900 
     68 H68       -84.9531   29.2270  -71.5692 H         1 UNK         0.0900 
     69 H69       -84.2559   29.5068  -69.9712 H         1 UNK         0.0900 
     70 H70       -81.7073   29.7028  -72.0873 H         1 UNK         0.2959 
     71 H71       -79.9864   28.5011  -72.6861 H         1 UNK         0.1079 
     72 H72       -79.2473   26.5283  -71.1850 H         1 UNK         0.0837 
     73 H73       -80.7186   26.7371  -70.2960 H         1 UNK         0.0837 
     74 H74       -77.1016   27.4252  -70.2377 H         1 UNK         0.0685 
     75 H75       -76.8575   29.1012  -69.8207 H         1 UNK         0.0685 
     76 H76       -77.4261   26.7523  -72.5798 H         1 UNK         0.1434 
     77 H77       -76.9281   29.6836  -75.6632 H         1 UNK         0.1329 
     78 H78       -77.1194   30.9037  -71.5539 H         1 UNK         0.1335 
     79 H79       -77.4892   32.0427  -74.9974 H         1 UNK         0.0680 
     80 H80       -77.3177   32.5689  -73.3471 H         1 UNK         0.0680 
     81 H81       -75.2517   32.5296  -72.0416 H         1 UNK         0.1032 
     82 H82       -74.5164   33.9350  -72.7626 H         1 UNK         0.1032 
     83 H83       -72.4855   32.5824  -73.3320 H         1 UNK         0.0461 
     84 H84       -71.9066   32.4756  -69.3409 H         1 UNK         0.3453 
     85 H85       -72.5040   31.0867  -70.2143 H         1 UNK         0.3453 
     86 H86       -74.0641   30.3368  -72.4734 H         1 UNK         0.2984 
     87 H87       -71.6616   28.1430  -71.8345 H         1 UNK         0.0554 
     88 H88       -74.1058   28.5000  -71.4402 H         1 UNK         0.0847 
     89 H89       -73.7848   26.9602  -72.1970 H         1 UNK         0.0847 
     90 H90       -74.4176   28.2897  -73.1635 H         1 UNK         0.0847 
     91 H91       -71.0334   27.1149  -73.6829 H         1 UNK         0.3141 
     92 H92       -70.7622   27.7059  -76.7057 H         1 UNK         0.0743 
     93 H93       -69.9123   26.1138  -75.0150 H         1 UNK         0.0784 
     94 H94       -70.3689   25.2134  -76.4441 H         1 UNK         0.0784 
     95 H95       -71.4263   25.2060  -75.0408 H         1 UNK         0.0784 
     96 H96       -73.4584   26.6268  -76.7827 H         1 UNK         0.3213 
     97 H97       -74.3126   26.8852  -79.0932 H         1 UNK         0.0855 
     98 H98       -72.5992   25.2633  -81.0502 H         1 UNK         0.0814 
     99 H99       -72.9738   26.9740  -81.1654 H         1 UNK         0.0814 
    100 H100      -74.2588   25.7884  -81.3303 H         1 UNK         0.0814 
    101 H101      -75.1155   24.9637  -78.3415 H         1 UNK         0.3105 
    102 H102      -75.4126   22.3812  -78.7845 H         1 UNK         0.0547 
    103 H103      -74.5065   20.4167  -77.5260 H         1 UNK         0.0837 
    104 H104      -72.9534   21.2345  -77.3585 H         1 UNK         0.0837 
    105 H105      -73.5449   20.7837  -78.9486 H         1 UNK         0.0837 
    106 H106      -76.1447   23.0328  -76.8118 H         1 UNK         0.3020 
    107 H107      -74.8374   23.4651  -73.6497 H         1 UNK         0.1245 
    108 H108      -73.9808   25.6679  -74.3301 H         1 UNK         0.0781 
    109 H109      -75.5038   25.8092  -73.5231 H         1 UNK         0.0781 
    110 H110      -77.8896   26.1790  -74.9178 H         1 UNK         0.0836 
    111 H111      -77.8250   27.4048  -76.1497 H         1 UNK         0.0836 
    112 H112      -77.2968   24.3006  -74.9316 H         1 UNK         0.3022 
    113 H113      -78.8529   21.2161  -74.9658 H         1 UNK         0.0747 
    114 H114      -80.4975   22.0212  -73.2846 H         1 UNK         0.0793 
    115 H115      -79.0253   21.4970  -72.4858 H         1 UNK         0.0793 
    116 H116      -79.3426   23.2141  -72.6902 H         1 UNK         0.0793 
    117 H117      -80.0860   23.7272  -75.0305 H         1 UNK         0.3047 
    118 H118      -79.3382   25.1083  -77.8991 H         1 UNK         0.0822 
    119 H119      -81.1425   24.2076  -79.3848 H         1 UNK         0.0807 
    120 H120      -81.1172   22.6822  -78.5003 H         1 UNK         0.0807 
    121 H121      -79.7117   23.1935  -79.4246 H         1 UNK         0.0807 
    122 H122      -81.8078   24.1231  -76.5184 H         1 UNK         0.2946 
    123 H123      -83.0492   26.9830  -75.9206 H         1 UNK         0.1144 
    124 H124      -83.9991   25.3861  -74.2307 H         1 UNK         0.0793 
    125 H125      -82.5648   24.3801  -74.3580 H         1 UNK         0.0793 
    126 H126      -83.6352   24.5897  -75.7451 H         1 UNK         0.0793 
    127 H127      -82.3577   28.0539  -74.1022 H         1 UNK         0.2896 
@<TRIPOS>BOND
     1    1    2 1    
     2    1   67 1    
     3    1   68 1    
     4    1   69 1    
     5    2    3 2    
     6    2    4 am   BACKBONE|DICT|INTERRES
     7    4    5 1    
     8    4   70 1    
     9    5    6 1    
    10    5   65 1    
    11    5   71 1    
    12    6    7 1    
    13    6   72 1    
    14    6   73 1    
    15    7    8 1    
    16    8    9 1    
    17    8   74 1    
    18    8   75 1    
    19    9   10 ar   
    20    9   14 ar   
    21   10   11 ar   
    22   10   76 1    
    23   11   12 ar   
    24   11   48 1    
    25   12   13 ar   
    26   12   77 1    
    27   13   14 ar   
    28   13   15 1    
    29   14   78 1    
    30   15   16 1    
    31   15   79 1    
    32   15   80 1    
    33   16   17 1    
    34   17   18 1    
    35   17   81 1    
    36   17   82 1    
    37   18   19 1    
    38   18   22 1    
    39   18   83 1    
    40   19   20 am   BACKBONE|DICT|INTERRES
    41   19   21 2    
    42   20   84 1    
    43   20   85 1    
    44   22   23 am   BACKBONE|DICT|INTERRES
    45   22   86 1    
    46   23   24 2    
    47   23   25 1    
    48   25   26 1    
    49   25   27 1    
    50   25   87 1    
    51   26   88 1    
    52   26   89 1    
    53   26   90 1    
    54   27   28 am   BACKBONE|DICT|INTERRES
    55   27   91 1    
    56   28   29 2    
    57   28   30 1    
    58   30   31 1    
    59   30   32 1    
    60   30   92 1    
    61   31   93 1    
    62   31   94 1    
    63   31   95 1    
    64   32   33 am   BACKBONE|DICT|INTERRES
    65   32   96 1    
    66   33   34 2    
    67   33   35 1    
    68   35   36 1    
    69   35   37 1    
    70   35   97 1    
    71   36   98 1    
    72   36   99 1    
    73   36  100 1    
    74   37   38 am   BACKBONE|DICT|INTERRES
    75   37  101 1    
    76   38   39 2    
    77   38   40 1    
    78   40   41 1    
    79   40   42 1    
    80   40  102 1    
    81   41  103 1    
    82   41  104 1    
    83   41  105 1    
    84   42   43 am   BACKBONE|DICT|INTERRES
    85   42  106 1    
    86   43   44 2    
    87   43   45 1    
    88   45   46 1    
    89   45   49 1    
    90   45  107 1    
    91   46   47 1    
    92   46  108 1    
    93   46  109 1    
    94   47   48 1    
    95   48  110 1    
    96   48  111 1    
    97   49   50 am   BACKBONE|DICT|INTERRES
    98   49  112 1    
    99   50   51 2    
   100   50   52 1    
   101   52   53 1    
   102   52   54 1    
   103   52  113 1    
   104   53  114 1    
   105   53  115 1    
   106   53  116 1    
   107   54   55 am   BACKBONE|DICT|INTERRES
   108   54  117 1    
   109   55   56 2    
   110   55   57 1    
   111   57   58 1    
   112   57   59 1    
   113   57  118 1    
   114   58  119 1    
   115   58  120 1    
   116   58  121 1    
   117   59   60 am   BACKBONE|DICT|INTERRES
   118   59  122 1    
   119   60   61 2    
   120   60   62 1    
   121   62   63 1    
   122   62   64 1    
   123   62  123 1    
   124   63  124 1    
   125   63  125 1    
   126   63  126 1    
   127   64   65 am   BACKBONE|DICT|INTERRES
   128   64  127 1    
   129   65   66 2    
@<TRIPOS>SUBSTRUCTURE
     1 UNK         1 GROUP             0       ****    0 ROOT    
