@<TRIPOS>MOLECULE
3R135
127   129    1
SMALL
USER_CHARGES


@<TRIPOS>ATOM
      1 CA        -85.5566   29.5813  -75.2311 C.3       0 UNK        -0.1998 
      2 C         -84.2556   28.8322  -75.4789 C.2       0 UNK         0.4909 
      3 O         -84.0239   28.3598  -76.5929 O.2       0 UNK        -0.5240 
      4 N         -83.4021   28.7290  -74.4527 N.am      1 UNK        -0.4739 
      5 CA        -82.1277   28.0030  -74.4967 C.3       1 UNK         0.0864 
      6 C6        -81.1684   28.4567  -73.3688 C.3       11 UNK        -0.0881 
      7 S7        -80.5827   30.1613  -73.6386 S.3       11 UNK        -0.2682 
      8 C8        -79.8392   30.5413  -72.0236 C.3       11 UNK         0.0289 
      9 C9        -78.5325   29.7928  -71.7964 C.ar      11 UNK        -0.0687 
     10 C10       -78.5321   28.5597  -71.1366 C.ar      11 UNK        -0.0823 
     11 C11       -77.3316   27.8978  -70.8610 C.ar      11 UNK        -0.0830 
     12 C12       -76.1239   28.4837  -71.2557 C.ar      11 UNK        -0.1021 
     13 C13       -76.1087   29.7145  -71.9180 C.ar      11 UNK        -0.0753 
     14 C14       -77.3176   30.3614  -72.1921 C.ar      11 UNK        -0.0933 
     15 C15       -74.7834   30.3845  -72.2501 C.3       11 UNK         0.0166 
     16 S16       -74.4747   30.5193  -74.0387 S.3       11 UNK        -0.2615 
     17 C17       -72.8490   31.3614  -73.9983 C.3       11 UNK        -0.0865 
     18 CA        -71.7083   30.5948  -74.7347 C.3       10 UNK         0.0862 
     19 C         -70.3305   31.3216  -74.6611 C.2       10 UNK         0.5551 
     20 N         -70.2995   32.6349  -74.8478 N.am      10 UNK        -0.7319 
     21 O         -69.2782   30.7116  -74.4774 O.2       10 UNK        -0.5018 
     22 N         -71.6351   29.1686  -74.3814 N.am      10 UNK        -0.4509 
     23 C         -71.4091   28.6393  -73.1710 C.2       10 UNK         0.4899 
     24 O         -71.2155   29.3092  -72.1553 O.2       10 UNK        -0.4839 
     25 CA        -71.4222   27.1004  -73.0664 C.3       9 UNK         0.0222 
     26 CB        -72.2176   26.6278  -71.8358 C.3       9 UNK        -0.1966 
     27 N         -72.0033   26.4873  -74.2646 N.am      9 UNK        -0.4218 
     28 C         -71.3161   25.8618  -75.2292 C.2       9 UNK         0.5020 
     29 O         -70.1081   25.6275  -75.1750 O.2       9 UNK        -0.5274 
     30 CA        -72.1026   25.4650  -76.4922 C.3       8 UNK         0.0270 
     31 CB        -72.8916   24.1668  -76.2564 C.3       8 UNK        -0.1976 
     32 N         -73.0171   26.5093  -76.9655 N.am      8 UNK        -0.4313 
     33 C         -72.6820   27.7561  -77.3239 C.2       8 UNK         0.5041 
     34 O         -71.5267   28.1789  -77.3075 O.2       8 UNK        -0.5577 
     35 CA        -73.8167   28.7233  -77.7144 C.3       7 UNK         0.0284 
     36 CB        -74.1608   28.6120  -79.2127 C.3       7 UNK        -0.1958 
     37 N         -75.0085   28.6158  -76.8598 N.am      7 UNK        -0.4454 
     38 C         -75.8722   27.5977  -76.7690 C.2       7 UNK         0.5089 
     39 O         -75.8339   26.5914  -77.4804 O.2       7 UNK        -0.5125 
     40 CA        -76.9119   27.6864  -75.6445 C.3       6 UNK         0.0408 
     41 CB        -78.3110   27.9554  -76.2167 C.3       6 UNK        -0.1791 
     42 N         -76.9265   26.4514  -74.8597 N.am      6 UNK        -0.4762 
     43 C         -75.9001   26.0092  -74.1193 C.2       6 UNK         0.5007 
     44 O         -74.8236   26.6010  -74.0264 O.2       6 UNK        -0.5032 
     45 CA        -76.0841   24.6676  -73.3936 C.3       5 UNK         0.0783 
     46 C46       -77.0607   24.7715  -72.1941 C.3       11 UNK        -0.0857 
     47 S47       -76.2146   25.3190  -70.6770 S.3       11 UNK        -0.2512 
     48 C48       -77.3518   26.6011  -70.0560 C.3       11 UNK         0.0225 
     49 N         -76.4925   23.6130  -74.3261 N.am      5 UNK        -0.4615 
     50 C         -75.8702   22.4303  -74.4413 C.2       4 UNK         0.5053 
     51 O         -74.8274   22.1537  -73.8474 O.2       4 UNK        -0.5105 
     52 CA        -76.5099   21.3418  -75.3256 C.3       4 UNK         0.0263 
     53 CB        -76.9228   20.1307  -74.4707 C.3       4 UNK        -0.1981 
     54 N         -77.6823   21.8040  -76.0673 N.am      4 UNK        -0.4224 
     55 C         -77.6436   22.4237  -77.2530 C.2       3 UNK         0.4895 
     56 O         -76.6078   22.6285  -77.8858 O.2       3 UNK        -0.5091 
     57 CA        -78.9895   22.9037  -77.8305 C.3       3 UNK         0.0250 
     58 CB        -79.5093   21.9029  -78.8756 C.3       3 UNK        -0.1996 
     59 N         -80.0454   23.1547  -76.8363 N.am      3 UNK        -0.4254 
     60 C         -79.9592   24.0521  -75.8463 C.2       2 UNK         0.5004 
     61 O         -78.9322   24.6793  -75.5772 O.2       2 UNK        -0.5226 
     62 CA        -81.2054   24.3056  -74.9983 C.3       2 UNK         0.0269 
     63 CB        -81.0873   23.6104  -73.6294 C.3       2 UNK        -0.1926 
     64 N         -81.2761   25.7521  -74.8380 N.am      2 UNK        -0.4687 
     65 C         -82.3361   26.4737  -74.4672 C.2       1 UNK         0.5165 
     66 O         -83.4113   25.9835  -74.1111 O.2       1 UNK        -0.5079 
     67 H67       -86.4071   28.9223  -75.4039 H         1 UNK         0.0900 
     68 H68       -85.6374   30.4285  -75.9115 H         1 UNK         0.0900 
     69 H69       -85.6219   29.9586  -74.2108 H         1 UNK         0.0900 
     70 H70       -83.6494   29.1250  -73.5575 H         1 UNK         0.2959 
     71 H71       -81.6545   28.2303  -75.4554 H         1 UNK         0.1079 
     72 H72       -81.6575   28.3846  -72.3955 H         1 UNK         0.0837 
     73 H73       -80.2857   27.8167  -73.3160 H         1 UNK         0.0837 
     74 H74       -79.6597   31.6160  -71.9685 H         1 UNK         0.0685 
     75 H75       -80.5525   30.3157  -71.2292 H         1 UNK         0.0685 
     76 H76       -79.4694   28.1306  -70.8099 H         1 UNK         0.1434 
     77 H77       -75.1906   27.9939  -71.0178 H         1 UNK         0.1329 
     78 H78       -77.3088   31.3226  -72.6878 H         1 UNK         0.1335 
     79 H79       -74.7746   31.3828  -71.8101 H         1 UNK         0.0680 
     80 H80       -73.9574   29.8391  -71.7910 H         1 UNK         0.0680 
     81 H81       -72.5567   31.5513  -72.9640 H         1 UNK         0.1032 
     82 H82       -72.9939   32.3454  -74.4458 H         1 UNK         0.1032 
     83 H83       -71.9583   30.5943  -75.7954 H         1 UNK         0.0461 
     84 H84       -69.4100   33.1087  -74.8163 H         1 UNK         0.3453 
     85 H85       -71.1374   33.1624  -75.0337 H         1 UNK         0.3453 
     86 H86       -71.6870   28.5363  -75.1691 H         1 UNK         0.2984 
     87 H87       -70.3860   26.7812  -72.9411 H         1 UNK         0.0554 
     88 H88       -72.2332   25.5401  -71.7664 H         1 UNK         0.0847 
     89 H89       -73.2504   26.9742  -71.8692 H         1 UNK         0.0847 
     90 H90       -71.7768   27.0042  -70.9120 H         1 UNK         0.0847 
     91 H91       -73.0104   26.6089  -74.3715 H         1 UNK         0.3141 
     92 H92       -71.3779   25.2848  -77.2888 H         1 UNK         0.0743 
     93 H93       -73.6523   24.2939  -75.4862 H         1 UNK         0.0784 
     94 H94       -73.3909   23.8315  -77.1659 H         1 UNK         0.0784 
     95 H95       -72.2322   23.3607  -75.9320 H         1 UNK         0.0784 
     96 H96       -74.0020   26.2660  -77.0380 H         1 UNK         0.3213 
     97 H97       -73.4355   29.7320  -77.5486 H         1 UNK         0.0855 
     98 H98       -73.2847   28.8267  -79.8259 H         1 UNK         0.0814 
     99 H99       -74.9365   29.3234  -79.4956 H         1 UNK         0.0814 
    100 H100      -74.5046   27.6139  -79.4849 H         1 UNK         0.0814 
    101 H101      -75.1008   29.3551  -76.1733 H         1 UNK         0.3105 
    102 H102      -76.6520   28.5060  -74.9711 H         1 UNK         0.0547 
    103 H103      -78.3233   28.8778  -76.7986 H         1 UNK         0.0837 
    104 H104      -78.6407   27.1495  -76.8739 H         1 UNK         0.0837 
    105 H105      -79.0441   28.0689  -75.4208 H         1 UNK         0.0837 
    106 H106      -77.7328   25.8449  -74.9950 H         1 UNK         0.3020 
    107 H107      -75.0952   24.4201  -72.9997 H         1 UNK         0.1245 
    108 H108      -77.4859   23.7918  -71.9695 H         1 UNK         0.0781 
    109 H109      -77.9139   25.4150  -72.4187 H         1 UNK         0.0781 
    110 H110      -77.0756   26.8359  -69.0274 H         1 UNK         0.0836 
    111 H111      -78.3593   26.1838  -70.0131 H         1 UNK         0.0836 
    112 H112      -77.3210   23.8005  -74.8821 H         1 UNK         0.3022 
    113 H113      -75.7461   21.0115  -76.0330 H         1 UNK         0.0747 
    114 H114      -77.3321   19.3304  -75.0875 H         1 UNK         0.0793 
    115 H115      -76.0663   19.7168  -73.9363 H         1 UNK         0.0793 
    116 H116      -77.6726   20.3988  -73.7252 H         1 UNK         0.0793 
    117 H117      -78.5809   21.6763  -75.6255 H         1 UNK         0.3047 
    118 H118      -78.7918   23.8516  -78.3362 H         1 UNK         0.0822 
    119 H119      -80.3984   22.2805  -79.3811 H         1 UNK         0.0807 
    120 H120      -79.7600   20.9420  -78.4245 H         1 UNK         0.0807 
    121 H121      -78.7587   21.7153  -79.6450 H         1 UNK         0.0807 
    122 H122      -80.9187   22.6667  -76.9783 H         1 UNK         0.2946 
    123 H123      -82.0949   23.9534  -75.5256 H         1 UNK         0.1144 
    124 H124      -81.0020   22.5293  -73.7461 H         1 UNK         0.0793 
    125 H125      -81.9638   23.7991  -73.0095 H         1 UNK         0.0793 
    126 H126      -80.2097   23.9510  -73.0781 H         1 UNK         0.0793 
    127 H127      -80.4222   26.2204  -75.1127 H         1 UNK         0.2896 
@<TRIPOS>BOND
     1    1    2 1    
     2    1   67 1    
     3    1   68 1    
     4    1   69 1    
     5    2    3 2    
     6    2    4 am   BACKBONE|DICT|INTERRES
     7    4    5 1    
     8    4   70 1    
     9    5    6 1    
    10    5   65 1    
    11    5   71 1    
    12    6    7 1    
    13    6   72 1    
    14    6   73 1    
    15    7    8 1    
    16    8    9 1    
    17    8   74 1    
    18    8   75 1    
    19    9   10 ar   
    20    9   14 ar   
    21   10   11 ar   
    22   10   76 1    
    23   11   12 ar   
    24   11   48 1    
    25   12   13 ar   
    26   12   77 1    
    27   13   14 ar   
    28   13   15 1    
    29   14   78 1    
    30   15   16 1    
    31   15   79 1    
    32   15   80 1    
    33   16   17 1    
    34   17   18 1    
    35   17   81 1    
    36   17   82 1    
    37   18   19 1    
    38   18   22 1    
    39   18   83 1    
    40   19   20 am   BACKBONE|DICT|INTERRES
    41   19   21 2    
    42   20   84 1    
    43   20   85 1    
    44   22   23 am   BACKBONE|DICT|INTERRES
    45   22   86 1    
    46   23   24 2    
    47   23   25 1    
    48   25   26 1    
    49   25   27 1    
    50   25   87 1    
    51   26   88 1    
    52   26   89 1    
    53   26   90 1    
    54   27   28 am   BACKBONE|DICT|INTERRES
    55   27   91 1    
    56   28   29 2    
    57   28   30 1    
    58   30   31 1    
    59   30   32 1    
    60   30   92 1    
    61   31   93 1    
    62   31   94 1    
    63   31   95 1    
    64   32   33 am   BACKBONE|DICT|INTERRES
    65   32   96 1    
    66   33   34 2    
    67   33   35 1    
    68   35   36 1    
    69   35   37 1    
    70   35   97 1    
    71   36   98 1    
    72   36   99 1    
    73   36  100 1    
    74   37   38 am   BACKBONE|DICT|INTERRES
    75   37  101 1    
    76   38   39 2    
    77   38   40 1    
    78   40   41 1    
    79   40   42 1    
    80   40  102 1    
    81   41  103 1    
    82   41  104 1    
    83   41  105 1    
    84   42   43 am   BACKBONE|DICT|INTERRES
    85   42  106 1    
    86   43   44 2    
    87   43   45 1    
    88   45   46 1    
    89   45   49 1    
    90   45  107 1    
    91   46   47 1    
    92   46  108 1    
    93   46  109 1    
    94   47   48 1    
    95   48  110 1    
    96   48  111 1    
    97   49   50 am   BACKBONE|DICT|INTERRES
    98   49  112 1    
    99   50   51 2    
   100   50   52 1    
   101   52   53 1    
   102   52   54 1    
   103   52  113 1    
   104   53  114 1    
   105   53  115 1    
   106   53  116 1    
   107   54   55 am   BACKBONE|DICT|INTERRES
   108   54  117 1    
   109   55   56 2    
   110   55   57 1    
   111   57   58 1    
   112   57   59 1    
   113   57  118 1    
   114   58  119 1    
   115   58  120 1    
   116   58  121 1    
   117   59   60 am   BACKBONE|DICT|INTERRES
   118   59  122 1    
   119   60   61 2    
   120   60   62 1    
   121   62   63 1    
   122   62   64 1    
   123   62  123 1    
   124   63  124 1    
   125   63  125 1    
   126   63  126 1    
   127   64   65 am   BACKBONE|DICT|INTERRES
   128   64  127 1    
   129   65   66 2    
@<TRIPOS>SUBSTRUCTURE
     1 UNK         1 GROUP             0       ****    0 ROOT    
