@<TRIPOS>MOLECULE
3R135
127   129    1
SMALL
USER_CHARGES


@<TRIPOS>ATOM
      1 CA        -81.7405   23.7021  -72.9232 C.3       0 UNK        -0.1998 
      2 C         -80.5908   24.4310  -72.2312 C.2       0 UNK         0.4909 
      3 O         -79.8970   23.8268  -71.4168 O.2       0 UNK        -0.5240 
      4 N         -80.3454   25.7188  -72.5067 N.am      1 UNK        -0.4739 
      5 CA        -80.9794   26.5460  -73.5390 C.3       1 UNK         0.0864 
      6 C6        -80.6039   28.0394  -73.3736 C.3       11 UNK        -0.0881 
      7 S7        -81.2186   28.7430  -71.8102 S.3       11 UNK        -0.2682 
      8 C8        -80.1871   30.2452  -71.6653 C.3       11 UNK         0.0289 
      9 C9        -78.7025   29.9692  -71.4300 C.ar      11 UNK        -0.0687 
     10 C10       -78.2840   28.9307  -70.5902 C.ar      11 UNK        -0.0823 
     11 C11       -76.9247   28.6915  -70.3743 C.ar      11 UNK        -0.0830 
     12 C12       -75.9776   29.5200  -70.9795 C.ar      11 UNK        -0.1021 
     13 C13       -76.3744   30.5636  -71.8187 C.ar      11 UNK        -0.0753 
     14 C14       -77.7394   30.7846  -72.0368 C.ar      11 UNK        -0.0933 
     15 C15       -75.3224   31.4531  -72.4702 C.3       11 UNK         0.0166 
     16 S16       -75.3781   31.3466  -74.2850 S.3       11 UNK        -0.2615 
     17 C17       -73.7494   32.0172  -74.7592 C.3       11 UNK        -0.0865 
     18 CA        -72.8735   30.9753  -75.5237 C.3       10 UNK         0.0862 
     19 C         -71.5820   31.5928  -76.1470 C.2       10 UNK         0.5551 
     20 N         -71.6698   32.7719  -76.7495 N.am      10 UNK        -0.7319 
     21 O         -70.5040   31.0007  -76.1385 O.2       10 UNK        -0.5018 
     22 N         -72.6186   29.7440  -74.7508 N.am      10 UNK        -0.4509 
     23 C         -71.9173   29.6591  -73.6118 C.2       10 UNK         0.4899 
     24 O         -71.4684   30.6370  -73.0116 O.2       10 UNK        -0.4839 
     25 CA        -71.6444   28.2602  -73.0328 C.3       9 UNK         0.0222 
     26 CB        -72.3157   28.0913  -71.6598 C.3       9 UNK        -0.1966 
     27 N         -72.0871   27.1660  -73.9044 N.am      9 UNK        -0.4218 
     28 C         -71.2668   26.2777  -74.4823 C.2       9 UNK         0.5020 
     29 O         -70.0373   26.3485  -74.4406 O.2       9 UNK        -0.5274 
     30 CA        -71.9119   25.0778  -75.1968 C.3       8 UNK         0.0270 
     31 CB        -72.3110   23.9966  -74.1792 C.3       8 UNK        -0.1976 
     32 N         -73.0702   25.4201  -76.0224 N.am      8 UNK        -0.4313 
     33 C         -73.0040   26.0862  -77.1835 C.2       8 UNK         0.5041 
     34 O         -71.9649   26.5517  -77.6521 O.2       8 UNK        -0.5577 
     35 CA        -74.3189   26.2508  -77.9589 C.3       7 UNK         0.0284 
     36 CB        -74.6813   24.9595  -78.7127 C.3       7 UNK        -0.1958 
     37 N         -75.4098   26.6174  -77.0584 N.am      7 UNK        -0.4454 
     38 C         -75.7165   27.8793  -76.7320 C.2       7 UNK         0.5089 
     39 O         -75.1754   28.8639  -77.2334 O.2       7 UNK        -0.5125 
     40 CA        -76.8166   28.0835  -75.6752 C.3       6 UNK         0.0408 
     41 CB        -78.1591   28.3449  -76.3731 C.3       6 UNK        -0.1791 
     42 N         -76.9400   26.9754  -74.7196 N.am      6 UNK        -0.4762 
     43 C         -75.9797   26.6302  -73.8454 C.2       6 UNK         0.5007 
     44 O         -74.8984   27.2125  -73.7659 O.2       6 UNK        -0.5032 
     45 CA        -76.2076   25.3632  -72.9898 C.3       5 UNK         0.0783 
     46 C46       -76.8284   25.6785  -71.6069 C.3       11 UNK        -0.0857 
     47 S47       -75.5773   26.2549  -70.4093 S.3       11 UNK        -0.2512 
     48 C48       -76.4800   27.5398  -69.4840 C.3       11 UNK         0.0225 
     49 N         -76.9454   24.3049  -73.6888 N.am      5 UNK        -0.4615 
     50 C         -76.5628   23.7326  -74.8378 C.2       4 UNK         0.5053 
     51 O         -75.5746   24.0945  -75.4788 O.2       4 UNK        -0.5105 
     52 CA        -77.4171   22.5834  -75.3823 C.3       4 UNK         0.0263 
     53 CB        -78.4088   21.9790  -74.3684 C.3       4 UNK        -0.1981 
     54 N         -78.1404   23.0697  -76.5514 N.am      4 UNK        -0.4224 
     55 C         -78.3864   22.3564  -77.6575 C.2       3 UNK         0.4895 
     56 O         -78.0201   21.1889  -77.8052 O.2       3 UNK        -0.5091 
     57 CA        -79.1436   23.0563  -78.8080 C.3       3 UNK         0.0250 
     58 CB        -80.1042   22.0984  -79.5458 C.3       3 UNK        -0.1996 
     59 N         -79.8325   24.2983  -78.4258 N.am      3 UNK        -0.4254 
     60 C         -80.8495   24.4351  -77.5617 C.2       2 UNK         0.5004 
     61 O         -81.3928   23.5046  -76.9627 O.2       2 UNK        -0.5226 
     62 CA        -81.3360   25.8751  -77.3233 C.3       2 UNK         0.0269 
     63 CB        -82.6589   26.1230  -78.0661 C.3       2 UNK        -0.1926 
     64 N         -81.5142   26.1959  -75.9033 N.am      2 UNK        -0.4687 
     65 C         -80.5813   26.0679  -74.9493 C.2       1 UNK         0.5165 
     66 O         -79.4383   25.6436  -75.1493 O.2       1 UNK        -0.5079 
     67 H67       -82.6671   24.2709  -72.8583 H         1 UNK         0.0900 
     68 H68       -81.9168   22.7377  -72.4472 H         1 UNK         0.0900 
     69 H69       -81.5138   23.5143  -73.9723 H         1 UNK         0.0900 
     70 H70       -79.6100   26.1811  -71.9961 H         1 UNK         0.2959 
     71 H71       -82.0622   26.4547  -73.4352 H         1 UNK         0.1079 
     72 H72       -79.5200   28.1644  -73.4165 H         1 UNK         0.0837 
     73 H73       -81.0180   28.6400  -74.1863 H         1 UNK         0.0837 
     74 H74       -80.3259   30.8469  -72.5650 H         1 UNK         0.0685 
     75 H75       -80.5608   30.8430  -70.8333 H         1 UNK         0.0685 
     76 H76       -79.0188   28.3027  -70.1058 H         1 UNK         0.1434 
     77 H77       -74.9279   29.3464  -70.7957 H         1 UNK         0.1329 
     78 H78       -78.0479   31.5958  -72.6820 H         1 UNK         0.1335 
     79 H79       -75.4778   32.4882  -72.1637 H         1 UNK         0.0680 
     80 H80       -74.3251   31.1714  -72.1280 H         1 UNK         0.0680 
     81 H81       -73.2239   32.3994  -73.8831 H         1 UNK         0.1032 
     82 H82       -73.9505   32.8881  -75.3836 H         1 UNK         0.1032 
     83 H83       -73.4484   30.6430  -76.3872 H         1 UNK         0.0461 
     84 H84       -70.8418   33.1658  -77.1686 H         1 UNK         0.3453 
     85 H85       -72.5440   33.2684  -76.8125 H         1 UNK         0.3453 
     86 H86       -72.9391   28.8889  -75.1790 H         1 UNK         0.2984 
     87 H87       -70.5655   28.2080  -72.8751 H         1 UNK         0.0554 
     88 H88       -72.0007   27.1658  -71.1779 H         1 UNK         0.0847 
     89 H89       -72.0625   28.9103  -70.9854 H         1 UNK         0.0847 
     90 H90       -73.3998   28.0612  -71.7518 H         1 UNK         0.0847 
     91 H91       -73.0969   27.0444  -73.9779 H         1 UNK         0.3141 
     92 H92       -71.1559   24.6469  -75.8571 H         1 UNK         0.0743 
     93 H93       -73.0558   24.3615  -73.4727 H         1 UNK         0.0784 
     94 H94       -72.7208   23.1157  -74.6740 H         1 UNK         0.0784 
     95 H95       -71.4465   23.6702  -73.5994 H         1 UNK         0.0784 
     96 H96       -73.9659   25.0266  -75.7428 H         1 UNK         0.3213 
     97 H97       -74.1748   27.0392  -78.7014 H         1 UNK         0.0855 
     98 H98       -74.8297   24.1159  -78.0380 H         1 UNK         0.0814 
     99 H99       -73.8886   24.6822  -79.4088 H         1 UNK         0.0814 
    100 H100      -75.5939   25.0850  -79.2954 H         1 UNK         0.0814 
    101 H101      -75.8610   25.8620  -76.5569 H         1 UNK         0.3105 
    102 H102      -76.5614   28.9723  -75.1013 H         1 UNK         0.0547 
    103 H103      -78.0761   29.1754  -77.0756 H         1 UNK         0.0837 
    104 H104      -78.4921   27.4753  -76.9385 H         1 UNK         0.0837 
    105 H105      -78.9367   28.6123  -75.6613 H         1 UNK         0.0837 
    106 H106      -77.7894   26.4168  -74.7699 H         1 UNK         0.3020 
    107 H107      -75.2168   24.9411  -72.8135 H         1 UNK         0.1245 
    108 H108      -77.2722   24.7798  -71.1756 H         1 UNK         0.0781 
    109 H109      -77.6423   26.3970  -71.6996 H         1 UNK         0.0781 
    110 H110      -75.8326   27.9276  -68.6963 H         1 UNK         0.0836 
    111 H111      -77.3326   27.0811  -68.9805 H         1 UNK         0.0836 
    112 H112      -77.7878   23.9723  -73.2421 H         1 UNK         0.3022 
    113 H113      -76.7134   21.8027  -75.6790 H         1 UNK         0.0747 
    114 H114      -78.8873   21.0894  -74.7783 H         1 UNK         0.0793 
    115 H115      -77.9076   21.6765  -73.4478 H         1 UNK         0.0793 
    116 H116      -79.1994   22.6814  -74.1104 H         1 UNK         0.0793 
    117 H117      -78.4827   24.0208  -76.4916 H         1 UNK         0.3047 
    118 H118      -78.3731   23.3536  -79.5211 H         1 UNK         0.0822 
    119 H119      -80.6146   22.6017  -80.3669 H         1 UNK         0.0807 
    120 H120      -80.8635   21.6913  -78.8774 H         1 UNK         0.0807 
    121 H121      -79.5643   21.2528  -79.9739 H         1 UNK         0.0807 
    122 H122      -79.4685   25.1336  -78.8637 H         1 UNK         0.2946 
    123 H123      -80.5908   26.5679  -77.7185 H         1 UNK         0.1144 
    124 H124      -82.9815   27.1601  -77.9717 H         1 UNK         0.0793 
    125 H125      -83.4588   25.4853  -77.6870 H         1 UNK         0.0793 
    126 H126      -82.5545   25.9143  -79.1319 H         1 UNK         0.0793 
    127 H127      -82.4257   26.5457  -75.6454 H         1 UNK         0.2896 
@<TRIPOS>BOND
     1    1    2 1    
     2    1   67 1    
     3    1   68 1    
     4    1   69 1    
     5    2    3 2    
     6    2    4 am   BACKBONE|DICT|INTERRES
     7    4    5 1    
     8    4   70 1    
     9    5    6 1    
    10    5   65 1    
    11    5   71 1    
    12    6    7 1    
    13    6   72 1    
    14    6   73 1    
    15    7    8 1    
    16    8    9 1    
    17    8   74 1    
    18    8   75 1    
    19    9   10 ar   
    20    9   14 ar   
    21   10   11 ar   
    22   10   76 1    
    23   11   12 ar   
    24   11   48 1    
    25   12   13 ar   
    26   12   77 1    
    27   13   14 ar   
    28   13   15 1    
    29   14   78 1    
    30   15   16 1    
    31   15   79 1    
    32   15   80 1    
    33   16   17 1    
    34   17   18 1    
    35   17   81 1    
    36   17   82 1    
    37   18   19 1    
    38   18   22 1    
    39   18   83 1    
    40   19   20 am   BACKBONE|DICT|INTERRES
    41   19   21 2    
    42   20   84 1    
    43   20   85 1    
    44   22   23 am   BACKBONE|DICT|INTERRES
    45   22   86 1    
    46   23   24 2    
    47   23   25 1    
    48   25   26 1    
    49   25   27 1    
    50   25   87 1    
    51   26   88 1    
    52   26   89 1    
    53   26   90 1    
    54   27   28 am   BACKBONE|DICT|INTERRES
    55   27   91 1    
    56   28   29 2    
    57   28   30 1    
    58   30   31 1    
    59   30   32 1    
    60   30   92 1    
    61   31   93 1    
    62   31   94 1    
    63   31   95 1    
    64   32   33 am   BACKBONE|DICT|INTERRES
    65   32   96 1    
    66   33   34 2    
    67   33   35 1    
    68   35   36 1    
    69   35   37 1    
    70   35   97 1    
    71   36   98 1    
    72   36   99 1    
    73   36  100 1    
    74   37   38 am   BACKBONE|DICT|INTERRES
    75   37  101 1    
    76   38   39 2    
    77   38   40 1    
    78   40   41 1    
    79   40   42 1    
    80   40  102 1    
    81   41  103 1    
    82   41  104 1    
    83   41  105 1    
    84   42   43 am   BACKBONE|DICT|INTERRES
    85   42  106 1    
    86   43   44 2    
    87   43   45 1    
    88   45   46 1    
    89   45   49 1    
    90   45  107 1    
    91   46   47 1    
    92   46  108 1    
    93   46  109 1    
    94   47   48 1    
    95   48  110 1    
    96   48  111 1    
    97   49   50 am   BACKBONE|DICT|INTERRES
    98   49  112 1    
    99   50   51 2    
   100   50   52 1    
   101   52   53 1    
   102   52   54 1    
   103   52  113 1    
   104   53  114 1    
   105   53  115 1    
   106   53  116 1    
   107   54   55 am   BACKBONE|DICT|INTERRES
   108   54  117 1    
   109   55   56 2    
   110   55   57 1    
   111   57   58 1    
   112   57   59 1    
   113   57  118 1    
   114   58  119 1    
   115   58  120 1    
   116   58  121 1    
   117   59   60 am   BACKBONE|DICT|INTERRES
   118   59  122 1    
   119   60   61 2    
   120   60   62 1    
   121   62   63 1    
   122   62   64 1    
   123   62  123 1    
   124   63  124 1    
   125   63  125 1    
   126   63  126 1    
   127   64   65 am   BACKBONE|DICT|INTERRES
   128   64  127 1    
   129   65   66 2    
@<TRIPOS>SUBSTRUCTURE
     1 UNK         1 GROUP             0       ****    0 ROOT    
