@<TRIPOS>MOLECULE
3R135
127   129    1
SMALL
USER_CHARGES


@<TRIPOS>ATOM
      1 CA        -83.6543   26.6678  -69.0524 C.3       0 UNK        -0.1998 
      2 C         -82.9070   26.1288  -70.2629 C.2       0 UNK         0.4909 
      3 O         -81.9875   25.3297  -70.0915 O.2       0 UNK        -0.5240 
      4 N         -83.3169   26.5604  -71.4659 N.am      1 UNK        -0.4739 
      5 CA        -82.8143   26.2715  -72.8232 C.3       1 UNK         0.0864 
      6 C6        -81.4912   26.9984  -73.1973 C.3       11 UNK        -0.0881 
      7 S7        -79.9740   26.4199  -72.3520 S.3       11 UNK        -0.2682 
      8 C8        -79.4324   27.9252  -71.4816 C.3       11 UNK         0.0289 
      9 C9        -78.4675   28.7467  -72.3270 C.ar      11 UNK        -0.0687 
     10 C10       -78.9356   29.5301  -73.3866 C.ar      11 UNK        -0.0823 
     11 C11       -78.0477   30.2739  -74.1698 C.ar      11 UNK        -0.0830 
     12 C12       -76.6806   30.2435  -73.8780 C.ar      11 UNK        -0.1021 
     13 C13       -76.2019   29.4750  -72.8127 C.ar      11 UNK        -0.0753 
     14 C14       -77.0985   28.7268  -72.0441 C.ar      11 UNK        -0.0933 
     15 C15       -74.7138   29.4307  -72.5072 C.3       11 UNK         0.0166 
     16 S16       -74.1467   30.9515  -71.6921 S.3       11 UNK        -0.2615 
     17 C17       -72.5052   30.4396  -71.0773 C.3       11 UNK        -0.0865 
     18 CA        -71.3902   30.5985  -72.1422 C.3       10 UNK         0.0862 
     19 C         -69.9844   30.5914  -71.4837 C.2       10 UNK         0.5551 
     20 N         -69.4748   31.7545  -71.1027 N.am      10 UNK        -0.7319 
     21 O         -69.3726   29.5446  -71.2778 O.2       10 UNK        -0.5018 
     22 N         -71.4954   29.5641  -73.1794 N.am      10 UNK        -0.4509 
     23 C         -70.9955   29.6638  -74.4130 C.2       10 UNK         0.4899 
     24 O         -70.4674   30.6873  -74.8498 O.2       10 UNK        -0.4839 
     25 CA        -71.0931   28.4346  -75.3361 C.3       9 UNK         0.0222 
     26 CB        -69.7617   27.6594  -75.3545 C.3       9 UNK        -0.1966 
     27 N         -72.2248   27.5228  -75.1072 N.am      9 UNK        -0.4218 
     28 C         -72.4759   26.7064  -74.0721 C.2       9 UNK         0.5020 
     29 O         -71.8524   26.7320  -73.0108 O.2       9 UNK        -0.5274 
     30 CA        -73.6030   25.6700  -74.2548 C.3       8 UNK         0.0270 
     31 CB        -74.9506   26.2031  -73.7487 C.3       8 UNK        -0.1976 
     32 N         -73.7595   25.2303  -75.6422 N.am      8 UNK        -0.4313 
     33 C         -72.8704   24.4917  -76.3212 C.2       8 UNK         0.5041 
     34 O         -71.8305   24.0444  -75.8364 O.2       8 UNK        -0.5577 
     35 CA        -73.1916   24.2242  -77.7988 C.3       7 UNK         0.0284 
     36 CB        -74.1968   23.0689  -77.9419 C.3       7 UNK        -0.1958 
     37 N         -73.7148   25.4255  -78.4529 N.am      7 UNK        -0.4454 
     38 C         -72.9512   26.4307  -78.9046 C.2       7 UNK         0.5089 
     39 O         -71.7206   26.4210  -78.8798 O.2       7 UNK        -0.5125 
     40 CA        -73.6776   27.6606  -79.4800 C.3       6 UNK         0.0408 
     41 CB        -73.8468   27.5185  -81.0008 C.3       6 UNK        -0.1791 
     42 N         -74.9866   27.9062  -78.8681 N.am      6 UNK        -0.4762 
     43 C         -75.1720   28.3199  -77.6056 C.2       6 UNK         0.5007 
     44 O         -74.2528   28.5556  -76.8232 O.2       6 UNK        -0.5032 
     45 CA        -76.6312   28.4391  -77.1215 C.3       5 UNK         0.0783 
     46 C46       -77.1864   29.8479  -77.4420 C.3       11 UNK        -0.0857 
     47 S47       -78.8781   30.1079  -76.8093 S.3       11 UNK        -0.2512 
     48 C48       -78.5754   31.1153  -75.3223 C.3       11 UNK         0.0225 
     49 N         -77.4899   27.3619  -77.6356 N.am      5 UNK        -0.4615 
     50 C         -77.2840   26.0583  -77.4142 C.2       4 UNK         0.5053 
     51 O         -76.2943   25.6119  -76.8292 O.2       4 UNK        -0.5105 
     52 CA        -78.3197   25.0782  -77.9824 C.3       4 UNK         0.0263 
     53 CB        -77.8395   24.5149  -79.3297 C.3       4 UNK        -0.1981 
     54 N         -78.5254   23.9774  -77.0403 N.am      4 UNK        -0.4224 
     55 C         -79.2163   24.1014  -75.9007 C.2       3 UNK         0.4895 
     56 O         -79.8888   25.0944  -75.6158 O.2       3 UNK        -0.5091 
     57 CA        -79.1022   22.9380  -74.9069 C.3       3 UNK         0.0250 
     58 CB        -77.7562   23.0042  -74.1633 C.3       3 UNK        -0.1996 
     59 N         -80.1802   23.0302  -73.9251 N.am      3 UNK        -0.4254 
     60 C         -81.1115   22.0984  -73.6914 C.2       2 UNK         0.5004 
     61 O         -81.1270   20.9933  -74.2358 O.2       2 UNK        -0.5226 
     62 CA        -82.2167   22.4445  -72.6741 C.3       2 UNK         0.0269 
     63 CB        -81.9695   21.7173  -71.3424 C.3       2 UNK        -0.1926 
     64 N         -82.3468   23.8804  -72.4094 N.am      2 UNK        -0.4687 
     65 C         -82.8327   24.7889  -73.2617 C.2       1 UNK         0.5165 
     66 O         -83.2978   24.4935  -74.3637 O.2       1 UNK        -0.5079 
     67 H67       -84.4440   27.3643  -69.3337 H         1 UNK         0.0900 
     68 H68       -84.1076   25.8477  -68.4964 H         1 UNK         0.0900 
     69 H69       -82.9642   27.1886  -68.3890 H         1 UNK         0.0900 
     70 H70       -84.1083   27.1893  -71.4695 H         1 UNK         0.2959 
     71 H71       -83.5741   26.7320  -73.4577 H         1 UNK         0.1079 
     72 H72       -81.6239   28.0647  -73.0178 H         1 UNK         0.0837 
     73 H73       -81.3170   26.9158  -74.2716 H         1 UNK         0.0837 
     74 H74       -78.9514   27.6233  -70.5501 H         1 UNK         0.0685 
     75 H75       -80.2915   28.5301  -71.1888 H         1 UNK         0.0685 
     76 H76       -79.9916   29.5554  -73.6132 H         1 UNK         0.1434 
     77 H77       -75.9859   30.8177  -74.4760 H         1 UNK         0.1329 
     78 H78       -76.7293   28.1239  -71.2257 H         1 UNK         0.1335 
     79 H79       -74.4798   28.5770  -71.8706 H         1 UNK         0.0680 
     80 H80       -74.1653   29.2906  -73.4388 H         1 UNK         0.0680 
     81 H81       -72.5439   29.4171  -70.6968 H         1 UNK         0.1032 
     82 H82       -72.2938   31.0679  -70.2095 H         1 UNK         0.1032 
     83 H83       -71.5217   31.5713  -72.6214 H         1 UNK         0.0461 
     84 H84       -69.9724   32.6177  -71.2583 H         1 UNK         0.3453 
     85 H85       -68.5697   31.7717  -70.6589 H         1 UNK         0.3453 
     86 H86       -71.7953   28.6423  -72.8783 H         1 UNK         0.2984 
     87 H87       -71.2524   28.8266  -76.3420 H         1 UNK         0.0554 
     88 H88       -68.9337   28.3116  -75.6353 H         1 UNK         0.0847 
     89 H89       -69.7903   26.8423  -76.0759 H         1 UNK         0.0847 
     90 H90       -69.5243   27.2373  -74.3774 H         1 UNK         0.0847 
     91 H91       -72.9074   27.5267  -75.8601 H         1 UNK         0.3141 
     92 H92       -73.3409   24.7936  -73.6584 H         1 UNK         0.0743 
     93 H93       -74.9019   26.4384  -72.6859 H         1 UNK         0.0784 
     94 H94       -75.2541   27.1040  -74.2823 H         1 UNK         0.0784 
     95 H95       -75.7419   25.4645  -73.8754 H         1 UNK         0.0784 
     96 H96       -74.6293   25.4872  -76.1073 H         1 UNK         0.3213 
     97 H97       -72.2652   23.9269  -78.2958 H         1 UNK         0.0855 
     98 H98       -75.1415   23.2822  -77.4414 H         1 UNK         0.0814 
     99 H99       -73.7982   22.1537  -77.5020 H         1 UNK         0.0814 
    100 H100      -74.4110   22.8568  -78.9894 H         1 UNK         0.0814 
    101 H101      -74.7184   25.5437  -78.4539 H         1 UNK         0.3105 
    102 H102      -73.0481   28.5325  -79.2888 H         1 UNK         0.0547 
    103 H103      -72.8828   27.3614  -81.4868 H         1 UNK         0.0837 
    104 H104      -74.4836   26.6721  -81.2609 H         1 UNK         0.0837 
    105 H105      -74.2841   28.4163  -81.4380 H         1 UNK         0.0837 
    106 H106      -75.8009   27.7318  -79.4398 H         1 UNK         0.3020 
    107 H107      -76.6073   28.3257  -76.0353 H         1 UNK         0.1245 
    108 H108      -77.2079   30.0118  -78.5212 H         1 UNK         0.0781 
    109 H109      -76.5307   30.6209  -77.0363 H         1 UNK         0.0781 
    110 H110      -79.5127   31.5879  -75.0245 H         1 UNK         0.0836 
    111 H111      -77.8904   31.9319  -75.5559 H         1 UNK         0.0836 
    112 H112      -78.3282   27.6564  -78.1158 H         1 UNK         0.3022 
    113 H113      -79.2672   25.5999  -78.1353 H         1 UNK         0.0747 
    114 H114      -78.5684   23.8219  -79.7505 H         1 UNK         0.0793 
    115 H115      -76.8908   23.9854  -79.2354 H         1 UNK         0.0793 
    116 H116      -77.6963   25.3133  -80.0590 H         1 UNK         0.0793 
    117 H117      -77.9674   23.1490  -77.1857 H         1 UNK         0.3047 
    118 H118      -79.1629   22.0014  -75.4652 H         1 UNK         0.0822 
    119 H119      -77.6463   22.1692  -73.4712 H         1 UNK         0.0807 
    120 H120      -77.6620   23.9274  -73.5897 H         1 UNK         0.0807 
    121 H121      -76.9146   22.9641  -74.8564 H         1 UNK         0.0807 
    122 H122      -80.2926   23.9382  -73.4919 H         1 UNK         0.2946 
    123 H123      -83.1609   22.0885  -73.0924 H         1 UNK         0.1144 
    124 H124      -81.8945   20.6393  -71.4919 H         1 UNK         0.0793 
    125 H125      -82.7843   21.8904  -70.6390 H         1 UNK         0.0793 
    126 H126      -81.0434   22.0479  -70.8703 H         1 UNK         0.0793 
    127 H127      -82.0134   24.2290  -71.5109 H         1 UNK         0.2896 
@<TRIPOS>BOND
     1    1    2 1    
     2    1   67 1    
     3    1   68 1    
     4    1   69 1    
     5    2    3 2    
     6    2    4 am   BACKBONE|DICT|INTERRES
     7    4    5 1    
     8    4   70 1    
     9    5    6 1    
    10    5   65 1    
    11    5   71 1    
    12    6    7 1    
    13    6   72 1    
    14    6   73 1    
    15    7    8 1    
    16    8    9 1    
    17    8   74 1    
    18    8   75 1    
    19    9   10 ar   
    20    9   14 ar   
    21   10   11 ar   
    22   10   76 1    
    23   11   12 ar   
    24   11   48 1    
    25   12   13 ar   
    26   12   77 1    
    27   13   14 ar   
    28   13   15 1    
    29   14   78 1    
    30   15   16 1    
    31   15   79 1    
    32   15   80 1    
    33   16   17 1    
    34   17   18 1    
    35   17   81 1    
    36   17   82 1    
    37   18   19 1    
    38   18   22 1    
    39   18   83 1    
    40   19   20 am   BACKBONE|DICT|INTERRES
    41   19   21 2    
    42   20   84 1    
    43   20   85 1    
    44   22   23 am   BACKBONE|DICT|INTERRES
    45   22   86 1    
    46   23   24 2    
    47   23   25 1    
    48   25   26 1    
    49   25   27 1    
    50   25   87 1    
    51   26   88 1    
    52   26   89 1    
    53   26   90 1    
    54   27   28 am   BACKBONE|DICT|INTERRES
    55   27   91 1    
    56   28   29 2    
    57   28   30 1    
    58   30   31 1    
    59   30   32 1    
    60   30   92 1    
    61   31   93 1    
    62   31   94 1    
    63   31   95 1    
    64   32   33 am   BACKBONE|DICT|INTERRES
    65   32   96 1    
    66   33   34 2    
    67   33   35 1    
    68   35   36 1    
    69   35   37 1    
    70   35   97 1    
    71   36   98 1    
    72   36   99 1    
    73   36  100 1    
    74   37   38 am   BACKBONE|DICT|INTERRES
    75   37  101 1    
    76   38   39 2    
    77   38   40 1    
    78   40   41 1    
    79   40   42 1    
    80   40  102 1    
    81   41  103 1    
    82   41  104 1    
    83   41  105 1    
    84   42   43 am   BACKBONE|DICT|INTERRES
    85   42  106 1    
    86   43   44 2    
    87   43   45 1    
    88   45   46 1    
    89   45   49 1    
    90   45  107 1    
    91   46   47 1    
    92   46  108 1    
    93   46  109 1    
    94   47   48 1    
    95   48  110 1    
    96   48  111 1    
    97   49   50 am   BACKBONE|DICT|INTERRES
    98   49  112 1    
    99   50   51 2    
   100   50   52 1    
   101   52   53 1    
   102   52   54 1    
   103   52  113 1    
   104   53  114 1    
   105   53  115 1    
   106   53  116 1    
   107   54   55 am   BACKBONE|DICT|INTERRES
   108   54  117 1    
   109   55   56 2    
   110   55   57 1    
   111   57   58 1    
   112   57   59 1    
   113   57  118 1    
   114   58  119 1    
   115   58  120 1    
   116   58  121 1    
   117   59   60 am   BACKBONE|DICT|INTERRES
   118   59  122 1    
   119   60   61 2    
   120   60   62 1    
   121   62   63 1    
   122   62   64 1    
   123   62  123 1    
   124   63  124 1    
   125   63  125 1    
   126   63  126 1    
   127   64   65 am   BACKBONE|DICT|INTERRES
   128   64  127 1    
   129   65   66 2    
@<TRIPOS>SUBSTRUCTURE
     1 UNK         1 GROUP             0       ****    0 ROOT    
