@<TRIPOS>MOLECULE
3R135
127   129    1
SMALL
USER_CHARGES


@<TRIPOS>ATOM
      1 CA        -77.3759   29.7693  -77.2936 C.3       0 UNK        -0.1998 
      2 C         -77.6342   28.5491  -76.4246 C.2       0 UNK         0.4909 
      3 O         -76.8268   27.6200  -76.4306 O.2       0 UNK        -0.5240 
      4 N         -78.7468   28.5433  -75.6787 N.am      1 UNK        -0.4739 
      5 CA        -79.1207   27.4803  -74.7369 C.3       1 UNK         0.0864 
      6 C6        -80.3585   27.8582  -73.8863 C.3       11 UNK        -0.0881 
      7 S7        -80.1185   29.3854  -72.9197 S.3       11 UNK        -0.2682 
      8 C8        -79.8070   28.7177  -71.2558 C.3       11 UNK         0.0289 
      9 C9        -78.4142   28.1166  -71.1442 C.ar      11 UNK        -0.0687 
     10 C10       -78.2172   26.7392  -71.2815 C.ar      11 UNK        -0.0823 
     11 C11       -76.9383   26.1855  -71.1588 C.ar      11 UNK        -0.0830 
     12 C12       -75.8516   27.0291  -70.8934 C.ar      11 UNK        -0.1021 
     13 C13       -76.0366   28.4083  -70.7521 C.ar      11 UNK        -0.0753 
     14 C14       -77.3212   28.9437  -70.8769 C.ar      11 UNK        -0.0933 
     15 C15       -74.8624   29.3165  -70.4143 C.3       11 UNK         0.0166 
     16 S16       -74.5930   30.5900  -71.6856 S.3       11 UNK        -0.2615 
     17 C17       -73.2289   31.5266  -70.9191 C.3       11 UNK        -0.0865 
     18 CA        -72.4869   32.4359  -71.9311 C.3       10 UNK         0.0862 
     19 C         -71.4075   33.2832  -71.2019 C.2       10 UNK         0.5551 
     20 N         -71.7526   34.4881  -70.7694 N.am      10 UNK        -0.7319 
     21 O         -70.2815   32.8387  -70.9855 O.2       10 UNK        -0.5018 
     22 N         -71.9427   31.6524  -73.0493 N.am      10 UNK        -0.4509 
     23 C         -71.3565   32.1545  -74.1432 C.2       10 UNK         0.4899 
     24 O         -71.2340   33.3588  -74.3702 O.2       10 UNK        -0.4839 
     25 CA        -70.8157   31.1417  -75.1683 C.3       9 UNK         0.0222 
     26 CB        -69.3128   30.9074  -74.9434 C.3       9 UNK        -0.1966 
     27 N         -71.5152   29.8519  -75.1492 N.am      9 UNK        -0.4218 
     28 C         -72.7552   29.6549  -75.6168 C.2       9 UNK         0.5020 
     29 O         -73.4652   30.5460  -76.0907 O.2       9 UNK        -0.5274 
     30 CA        -73.2961   28.2166  -75.5324 C.3       8 UNK         0.0270 
     31 CB        -74.2553   28.0698  -74.3398 C.3       8 UNK        -0.1976 
     32 N         -73.9910   27.8364  -76.7637 N.am      8 UNK        -0.4313 
     33 C         -73.4012   27.6993  -77.9607 C.2       8 UNK         0.5041 
     34 O         -72.1842   27.7997  -78.1350 O.2       8 UNK        -0.5577 
     35 CA        -74.3264   27.4034  -79.1594 C.3       7 UNK         0.0284 
     36 CB        -73.5615   26.9329  -80.4158 C.3       7 UNK        -0.1958 
     37 N         -75.4146   26.4756  -78.8297 N.am      7 UNK        -0.4454 
     38 C         -75.3054   25.2124  -78.3955 C.2       7 UNK         0.5089 
     39 O         -74.2373   24.6103  -78.2777 O.2       7 UNK        -0.5125 
     40 CA        -76.6370   24.5206  -78.0518 C.3       6 UNK         0.0408 
     41 CB        -76.9504   23.3637  -79.0214 C.3       6 UNK        -0.1791 
     42 N         -76.7095   24.1047  -76.6452 N.am      6 UNK        -0.4762 
     43 C         -76.0096   23.1452  -76.0204 C.2       6 UNK         0.5007 
     44 O         -75.2800   22.3266  -76.5803 O.2       6 UNK        -0.5032 
     45 CA        -76.1633   23.0846  -74.4933 C.3       5 UNK         0.0783 
     46 C46       -75.6301   24.3754  -73.8200 C.3       11 UNK        -0.0857 
     47 S47       -75.2486   24.1041  -72.0600 S.3       11 UNK        -0.2512 
     48 C48       -76.7736   24.6692  -71.2341 C.3       11 UNK         0.0225 
     49 N         -77.5609   22.8185  -74.1403 N.am      5 UNK        -0.4615 
     50 C         -78.0350   21.6105  -73.8137 C.2       4 UNK         0.5053 
     51 O         -77.3532   20.5854  -73.8396 O.2       4 UNK        -0.5105 
     52 CA        -79.4949   21.5027  -73.3468 C.3       4 UNK         0.0263 
     53 CB        -79.5827   21.6211  -71.8124 C.3       4 UNK        -0.1981 
     54 N         -80.4100   22.4594  -73.9811 N.am      4 UNK        -0.4224 
     55 C         -81.7282   22.2357  -74.1164 C.2       3 UNK         0.4895 
     56 O         -82.2851   21.2041  -73.7369 O.2       3 UNK        -0.5091 
     57 CA        -82.5969   23.3322  -74.7651 C.3       3 UNK         0.0250 
     58 CB        -83.3267   24.1429  -73.6810 C.3       3 UNK        -0.1996 
     59 N         -81.8568   24.2541  -75.6250 N.am      3 UNK        -0.4254 
     60 C         -81.2465   23.9254  -76.7706 C.2       2 UNK         0.5004 
     61 O         -81.3224   22.8114  -77.2890 O.2       2 UNK        -0.5226 
     62 CA        -80.3791   25.0068  -77.4417 C.3       2 UNK         0.0269 
     63 CB        -81.0423   25.5136  -78.7323 C.3       2 UNK        -0.1926 
     64 N         -80.0305   26.1626  -76.5995 N.am      2 UNK        -0.4687 
     65 C         -79.3706   26.1290  -75.4314 C.2       1 UNK         0.5165 
     66 O         -78.9832   25.0887  -74.8962 O.2       1 UNK        -0.5079 
     67 H67       -76.4050   30.2011  -77.0495 H         1 UNK         0.0900 
     68 H68       -77.3696   29.4877  -78.3459 H         1 UNK         0.0900 
     69 H69       -78.1343   30.5388  -77.1509 H         1 UNK         0.0900 
     70 H70       -79.3613   29.3451  -75.6948 H         1 UNK         0.2959 
     71 H71       -78.2706   27.3354  -74.0667 H         1 UNK         0.1079 
     72 H72       -80.6265   27.0457  -73.2081 H         1 UNK         0.0837 
     73 H73       -81.2302   28.0093  -74.5262 H         1 UNK         0.0837 
     74 H74       -80.5709   27.9821  -70.9990 H         1 UNK         0.0685 
     75 H75       -79.9129   29.5259  -70.5306 H         1 UNK         0.0685 
     76 H76       -79.0657   26.0952  -71.4679 H         1 UNK         0.1434 
     77 H77       -74.8625   26.6092  -70.7735 H         1 UNK         0.1329 
     78 H78       -77.4701   30.0088  -70.7619 H         1 UNK         0.1335 
     79 H79       -73.9469   28.7350  -70.2953 H         1 UNK         0.0680 
     80 H80       -75.0533   29.7995  -69.4548 H         1 UNK         0.0680 
     81 H81       -73.6485   32.1227  -70.1061 H         1 UNK         0.1032 
     82 H82       -72.5295   30.8276  -70.4556 H         1 UNK         0.1032 
     83 H83       -73.2171   33.1249  -72.3609 H         1 UNK         0.0461 
     84 H84       -72.6769   34.8563  -70.9337 H         1 UNK         0.3453 
     85 H85       -71.0716   35.0468  -70.2791 H         1 UNK         0.3453 
     86 H86       -72.0038   30.6507  -72.9550 H         1 UNK         0.2984 
     87 H87       -70.9437   31.5803  -76.1604 H         1 UNK         0.0554 
     88 H88       -68.7615   31.8481  -74.9851 H         1 UNK         0.0847 
     89 H89       -68.8922   30.2548  -75.7087 H         1 UNK         0.0847 
     90 H90       -69.1136   30.4584  -73.9694 H         1 UNK         0.0847 
     91 H91       -71.0014   29.0623  -74.7842 H         1 UNK         0.3141 
     92 H92       -72.4634   27.5236  -75.3953 H         1 UNK         0.0743 
     93 H93       -75.0730   28.7908  -74.3861 H         1 UNK         0.0784 
     94 H94       -74.6962   27.0758  -74.2991 H         1 UNK         0.0784 
     95 H95       -73.7328   28.2291  -73.3963 H         1 UNK         0.0784 
     96 H96       -75.0030   27.7384  -76.7003 H         1 UNK         0.3213 
     97 H97       -74.8025   28.3539  -79.4055 H         1 UNK         0.0855 
     98 H98       -73.0045   26.0139  -80.2310 H         1 UNK         0.0814 
     99 H99       -72.8432   27.6866  -80.7406 H         1 UNK         0.0814 
    100 H100      -74.2395   26.7530  -81.2499 H         1 UNK         0.0814 
    101 H101      -76.3409   26.8794  -78.8442 H         1 UNK         0.3105 
    102 H102      -77.4239   25.2654  -78.1719 H         1 UNK         0.0547 
    103 H103      -77.8855   22.8666  -78.7645 H         1 UNK         0.0837 
    104 H104      -76.1620   22.6107  -79.0279 H         1 UNK         0.0837 
    105 H105      -77.0471   23.7325  -80.0431 H         1 UNK         0.0837 
    106 H106      -77.2903   24.6942  -76.0609 H         1 UNK         0.3020 
    107 H107      -75.5323   22.2570  -74.1589 H         1 UNK         0.1245 
    108 H108      -76.3281   25.2077  -73.9297 H         1 UNK         0.0781 
    109 H109      -74.6981   24.6949  -74.2907 H         1 UNK         0.0781 
    110 H110      -76.7756   24.2780  -70.2161 H         1 UNK         0.0836 
    111 H111      -77.6290   24.2175  -71.7353 H         1 UNK         0.0836 
    112 H112      -78.1767   23.6248  -74.1686 H         1 UNK         0.3022 
    113 H113      -79.8119   20.4943  -73.6233 H         1 UNK         0.0747 
    114 H114      -80.5688   21.3329  -71.4482 H         1 UNK         0.0793 
    115 H115      -78.8581   20.9684  -71.3233 H         1 UNK         0.0793 
    116 H116      -79.3892   22.6388  -71.4745 H         1 UNK         0.0793 
    117 H117      -80.0175   23.3200  -74.3432 H         1 UNK         0.3047 
    118 H118      -83.3456   22.8300  -75.3817 H         1 UNK         0.0822 
    119 H119      -84.0124   24.8681  -74.1199 H         1 UNK         0.0807 
    120 H120      -82.6280   24.6833  -73.0410 H         1 UNK         0.0807 
    121 H121      -83.9187   23.4902  -73.0377 H         1 UNK         0.0807 
    122 H122      -81.7510   25.2001  -75.2917 H         1 UNK         0.2946 
    123 H123      -79.4547   24.5004  -77.7124 H         1 UNK         0.1144 
    124 H124      -80.3797   26.1810  -79.2837 H         1 UNK         0.0793 
    125 H125      -81.9677   26.0522  -78.5248 H         1 UNK         0.0793 
    126 H126      -81.2894   24.6857  -79.3987 H         1 UNK         0.0793 
    127 H127      -80.3002   27.0691  -76.9546 H         1 UNK         0.2896 
@<TRIPOS>BOND
     1    1    2 1    
     2    1   67 1    
     3    1   68 1    
     4    1   69 1    
     5    2    3 2    
     6    2    4 am   BACKBONE|DICT|INTERRES
     7    4    5 1    
     8    4   70 1    
     9    5    6 1    
    10    5   65 1    
    11    5   71 1    
    12    6    7 1    
    13    6   72 1    
    14    6   73 1    
    15    7    8 1    
    16    8    9 1    
    17    8   74 1    
    18    8   75 1    
    19    9   10 ar   
    20    9   14 ar   
    21   10   11 ar   
    22   10   76 1    
    23   11   12 ar   
    24   11   48 1    
    25   12   13 ar   
    26   12   77 1    
    27   13   14 ar   
    28   13   15 1    
    29   14   78 1    
    30   15   16 1    
    31   15   79 1    
    32   15   80 1    
    33   16   17 1    
    34   17   18 1    
    35   17   81 1    
    36   17   82 1    
    37   18   19 1    
    38   18   22 1    
    39   18   83 1    
    40   19   20 am   BACKBONE|DICT|INTERRES
    41   19   21 2    
    42   20   84 1    
    43   20   85 1    
    44   22   23 am   BACKBONE|DICT|INTERRES
    45   22   86 1    
    46   23   24 2    
    47   23   25 1    
    48   25   26 1    
    49   25   27 1    
    50   25   87 1    
    51   26   88 1    
    52   26   89 1    
    53   26   90 1    
    54   27   28 am   BACKBONE|DICT|INTERRES
    55   27   91 1    
    56   28   29 2    
    57   28   30 1    
    58   30   31 1    
    59   30   32 1    
    60   30   92 1    
    61   31   93 1    
    62   31   94 1    
    63   31   95 1    
    64   32   33 am   BACKBONE|DICT|INTERRES
    65   32   96 1    
    66   33   34 2    
    67   33   35 1    
    68   35   36 1    
    69   35   37 1    
    70   35   97 1    
    71   36   98 1    
    72   36   99 1    
    73   36  100 1    
    74   37   38 am   BACKBONE|DICT|INTERRES
    75   37  101 1    
    76   38   39 2    
    77   38   40 1    
    78   40   41 1    
    79   40   42 1    
    80   40  102 1    
    81   41  103 1    
    82   41  104 1    
    83   41  105 1    
    84   42   43 am   BACKBONE|DICT|INTERRES
    85   42  106 1    
    86   43   44 2    
    87   43   45 1    
    88   45   46 1    
    89   45   49 1    
    90   45  107 1    
    91   46   47 1    
    92   46  108 1    
    93   46  109 1    
    94   47   48 1    
    95   48  110 1    
    96   48  111 1    
    97   49   50 am   BACKBONE|DICT|INTERRES
    98   49  112 1    
    99   50   51 2    
   100   50   52 1    
   101   52   53 1    
   102   52   54 1    
   103   52  113 1    
   104   53  114 1    
   105   53  115 1    
   106   53  116 1    
   107   54   55 am   BACKBONE|DICT|INTERRES
   108   54  117 1    
   109   55   56 2    
   110   55   57 1    
   111   57   58 1    
   112   57   59 1    
   113   57  118 1    
   114   58  119 1    
   115   58  120 1    
   116   58  121 1    
   117   59   60 am   BACKBONE|DICT|INTERRES
   118   59  122 1    
   119   60   61 2    
   120   60   62 1    
   121   62   63 1    
   122   62   64 1    
   123   62  123 1    
   124   63  124 1    
   125   63  125 1    
   126   63  126 1    
   127   64   65 am   BACKBONE|DICT|INTERRES
   128   64  127 1    
   129   65   66 2    
@<TRIPOS>SUBSTRUCTURE
     1 UNK         1 GROUP             0       ****    0 ROOT    
