@<TRIPOS>MOLECULE
3R135
127   129    1
SMALL
USER_CHARGES


@<TRIPOS>ATOM
      1 CA        -83.0180   22.9140  -72.9602 C.3       0 UNK        -0.1998 
      2 C         -82.6499   24.1312  -73.7944 C.2       0 UNK         0.4909 
      3 O         -82.9766   24.1802  -74.9812 O.2       0 UNK        -0.5240 
      4 N         -81.9650   25.1110  -73.1865 N.am      1 UNK        -0.4739 
      5 CA        -81.4456   26.3169  -73.8444 C.3       1 UNK         0.0864 
      6 C6        -80.7719   27.2644  -72.8206 C.3       11 UNK        -0.0881 
      7 S7        -80.6456   28.9803  -73.4262 S.3       11 UNK        -0.2682 
      8 C8        -80.1537   29.8711  -71.9133 C.3       11 UNK         0.0289 
      9 C9        -78.6474   29.8484  -71.6752 C.ar      11 UNK        -0.0687 
     10 C10       -78.0417   28.7384  -71.0775 C.ar      11 UNK        -0.0823 
     11 C11       -76.6669   28.7298  -70.8225 C.ar      11 UNK        -0.0830 
     12 C12       -75.9054   29.8596  -71.1266 C.ar      11 UNK        -0.1021 
     13 C13       -76.4920   30.9757  -71.7290 C.ar      11 UNK        -0.0753 
     14 C14       -77.8629   30.9589  -72.0111 C.ar      11 UNK        -0.0933 
     15 C15       -75.6526   32.2127  -72.0301 C.3       11 UNK         0.0166 
     16 S16       -74.6913   32.0564  -73.5705 S.3       11 UNK        -0.2615 
     17 C17       -73.3857   30.8839  -73.0617 C.3       11 UNK        -0.0865 
     18 CA        -72.1583   30.8457  -74.0188 C.3       10 UNK         0.0862 
     19 C         -71.1241   31.9861  -73.7574 C.2       10 UNK         0.5551 
     20 N         -69.8338   31.7633  -73.9794 N.am      10 UNK        -0.7319 
     21 O         -71.4864   33.0945  -73.3714 O.2       10 UNK        -0.5018 
     22 N         -71.5663   29.4963  -74.1056 N.am      10 UNK        -0.4509 
     23 C         -71.0644   28.7907  -73.0802 C.2       10 UNK         0.4899 
     24 O         -71.0541   29.2002  -71.9186 O.2       10 UNK        -0.4839 
     25 CA        -70.4333   27.4140  -73.3887 C.3       9 UNK         0.0222 
     26 CB        -70.7742   26.3678  -72.3045 C.3       9 UNK        -0.1966 
     27 N         -70.7074   26.8878  -74.7357 N.am      9 UNK        -0.4218 
     28 C         -71.8919   26.5000  -75.2272 C.2       9 UNK         0.5020 
     29 O         -72.9527   26.5310  -74.5990 O.2       9 UNK        -0.5274 
     30 CA        -71.8989   25.9961  -76.6739 C.3       8 UNK         0.0270 
     31 CB        -71.7870   24.4636  -76.7236 C.3       8 UNK        -0.1976 
     32 N         -73.1698   26.4106  -77.2485 N.am      8 UNK        -0.4313 
     33 C         -73.3514   27.0262  -78.4206 C.2       8 UNK         0.5041 
     34 O         -72.4714   27.1625  -79.2716 O.2       8 UNK        -0.5577 
     35 CA        -74.7515   27.6154  -78.6743 C.3       7 UNK         0.0284 
     36 CB        -75.5871   26.6713  -79.5540 C.3       7 UNK        -0.1958 
     37 N         -75.4832   27.8785  -77.4325 N.am      7 UNK        -0.4454 
     38 C         -75.1990   28.8356  -76.5419 C.2       7 UNK         0.5089 
     39 O         -74.3234   29.6839  -76.7100 O.2       7 UNK        -0.5125 
     40 CA        -76.0138   28.8293  -75.2353 C.3       6 UNK         0.0408 
     41 CB        -77.4730   29.2520  -75.4798 C.3       6 UNK        -0.1791 
     42 N         -75.9363   27.5839  -74.4565 N.am      6 UNK        -0.4762 
     43 C         -76.3451   26.3535  -74.7916 C.2       6 UNK         0.5007 
     44 O         -76.8282   26.0816  -75.8934 O.2       6 UNK        -0.5032 
     45 CA        -76.1841   25.2375  -73.7377 C.3       5 UNK         0.0783 
     46 C46       -76.4973   25.6858  -72.2846 C.3       11 UNK        -0.0857 
     47 S47       -75.1083   26.5292  -71.4584 S.3       11 UNK        -0.2512 
     48 C48       -75.9946   27.5121  -70.2056 C.3       11 UNK         0.0225 
     49 N         -77.0620   24.1390  -74.1285 N.am      5 UNK        -0.4615 
     50 C         -76.8269   22.8362  -73.9740 C.2       4 UNK         0.5053 
     51 O         -75.7802   22.3869  -73.5067 O.2       4 UNK        -0.5105 
     52 CA        -77.9428   21.8596  -74.3821 C.3       4 UNK         0.0263 
     53 CB        -78.7687   21.4514  -73.1495 C.3       4 UNK        -0.1981 
     54 N         -78.8545   22.3916  -75.4051 N.am      4 UNK        -0.4224 
     55 C         -79.2607   21.7027  -76.4833 C.2       3 UNK         0.4895 
     56 O         -78.8397   20.5813  -76.7716 O.2       3 UNK        -0.5091 
     57 CA        -80.3429   22.3254  -77.3885 C.3       3 UNK         0.0250 
     58 CB        -81.7029   21.6576  -77.1251 C.3       3 UNK        -0.1996 
     59 N         -80.4888   23.7728  -77.2332 N.am      3 UNK        -0.4254 
     60 C         -79.6465   24.6801  -77.7478 C.2       2 UNK         0.5004 
     61 O         -78.7011   24.3879  -78.4804 O.2       2 UNK        -0.5226 
     62 CA        -79.8879   26.1630  -77.3927 C.3       2 UNK         0.0269 
     63 CB        -80.5183   26.9023  -78.5839 C.3       2 UNK        -0.1926 
     64 N         -80.7013   26.4137  -76.1930 N.am      2 UNK        -0.4687 
     65 C         -80.4647   25.9264  -74.9668 C.2       1 UNK         0.5165 
     66 O         -79.5456   25.1500  -74.7031 O.2       1 UNK        -0.5079 
     67 H67       -82.5461   22.0223  -73.3722 H         1 UNK         0.0900 
     68 H68       -84.0973   22.7648  -72.9701 H         1 UNK         0.0900 
     69 H69       -82.6992   23.0182  -71.9232 H         1 UNK         0.0900 
     70 H70       -81.7105   24.9997  -72.2157 H         1 UNK         0.2959 
     71 H71       -82.3048   26.8274  -74.2854 H         1 UNK         0.1079 
     72 H72       -81.3585   27.2887  -71.9007 H         1 UNK         0.0837 
     73 H73       -79.7830   26.8990  -72.5408 H         1 UNK         0.0837 
     74 H74       -80.4974   30.9030  -71.9994 H         1 UNK         0.0685 
     75 H75       -80.6750   29.4566  -71.0493 H         1 UNK         0.0685 
     76 H76       -78.6416   27.8821  -70.8051 H         1 UNK         0.1434 
     77 H77       -74.8502   29.8640  -70.8929 H         1 UNK         0.1329 
     78 H78       -78.3251   31.8225  -72.4694 H         1 UNK         0.1335 
     79 H79       -76.2985   33.0878  -72.1158 H         1 UNK         0.0680 
     80 H80       -74.9790   32.4187  -71.1969 H         1 UNK         0.0680 
     81 H81       -73.8468   29.8966  -73.0269 H         1 UNK         0.1032 
     82 H82       -73.0682   31.1006  -72.0401 H         1 UNK         0.1032 
     83 H83       -72.5259   31.0355  -75.0276 H         1 UNK         0.0461 
     84 H84       -69.1697   32.5039  -73.8170 H         1 UNK         0.3453 
     85 H85       -69.5190   30.8637  -74.3046 H         1 UNK         0.3453 
     86 H86       -71.5293   29.0938  -75.0302 H         1 UNK         0.2984 
     87 H87       -69.3548   27.5742  -73.3529 H         1 UNK         0.0554 
     88 H88       -70.3168   25.4031  -72.5232 H         1 UNK         0.0847 
     89 H89       -71.8502   26.2163  -72.2106 H         1 UNK         0.0847 
     90 H90       -70.4084   26.6824  -71.3263 H         1 UNK         0.0847 
     91 H91       -69.9008   26.8245  -75.3428 H         1 UNK         0.3141 
     92 H92       -71.0668   26.4466  -77.2194 H         1 UNK         0.0743 
     93 H93       -72.5914   23.9815  -76.1658 H         1 UNK         0.0784 
     94 H94       -71.8268   24.0984  -77.7500 H         1 UNK         0.0784 
     95 H95       -70.8428   24.1262  -76.2945 H         1 UNK         0.0784 
     96 H96       -73.9341   26.4155  -76.5848 H         1 UNK         0.3213 
     97 H97       -74.6217   28.5621  -79.2030 H         1 UNK         0.0855 
     98 H98       -75.7707   25.7157  -79.0601 H         1 UNK         0.0814 
     99 H99       -75.0779   26.4611  -80.4955 H         1 UNK         0.0814 
    100 H100      -76.5544   27.1101  -79.7998 H         1 UNK         0.0814 
    101 H101      -76.1714   27.1848  -77.1425 H         1 UNK         0.3105 
    102 H102      -75.5726   29.5878  -74.5943 H         1 UNK         0.0547 
    103 H103      -77.5208   30.1961  -76.0235 H         1 UNK         0.0837 
    104 H104      -78.0309   28.5143  -76.0549 H         1 UNK         0.0837 
    105 H105      -77.9916   29.4002  -74.5348 H         1 UNK         0.0837 
    106 H106      -75.5086   27.6800  -73.5433 H         1 UNK         0.3020 
    107 H107      -75.1473   24.8975  -73.7995 H         1 UNK         0.1245 
    108 H108      -76.7293   24.8157  -71.6681 H         1 UNK         0.0781 
    109 H109      -77.3942   26.3049  -72.2618 H         1 UNK         0.0781 
    110 H110      -75.2826   27.8373  -69.4456 H         1 UNK         0.0836 
    111 H111      -76.7215   26.8823  -69.6900 H         1 UNK         0.0836 
    112 H112      -77.9418   24.4557  -74.5324 H         1 UNK         0.3022 
    113 H113      -77.4356   20.9691  -74.7594 H         1 UNK         0.0747 
    114 H114      -79.4962   20.6788  -73.3990 H         1 UNK         0.0793 
    115 H115      -78.1284   21.0508  -72.3622 H         1 UNK         0.0793 
    116 H116      -79.3114   22.3003  -72.7312 H         1 UNK         0.0793 
    117 H117      -79.2291   23.3227  -75.2480 H         1 UNK         0.3047 
    118 H118      -80.0596   22.1173  -78.4227 H         1 UNK         0.0822 
    119 H119      -82.4736   22.0481  -77.7898 H         1 UNK         0.0807 
    120 H120      -82.0359   21.8115  -76.0981 H         1 UNK         0.0807 
    121 H121      -81.6485   20.5808  -77.2912 H         1 UNK         0.0807 
    122 H122      -81.2447   24.0953  -76.6417 H         1 UNK         0.2946 
    123 H123      -78.9060   26.5997  -77.2137 H         1 UNK         0.1144 
    124 H124      -80.5801   27.9749  -78.3990 H         1 UNK         0.0793 
    125 H125      -81.5236   26.5374  -78.7979 H         1 UNK         0.0793 
    126 H126      -79.9228   26.7672  -79.4882 H         1 UNK         0.0793 
    127 H127      -81.4963   27.0239  -76.3193 H         1 UNK         0.2896 
@<TRIPOS>BOND
     1    1    2 1    
     2    1   67 1    
     3    1   68 1    
     4    1   69 1    
     5    2    3 2    
     6    2    4 am   BACKBONE|DICT|INTERRES
     7    4    5 1    
     8    4   70 1    
     9    5    6 1    
    10    5   65 1    
    11    5   71 1    
    12    6    7 1    
    13    6   72 1    
    14    6   73 1    
    15    7    8 1    
    16    8    9 1    
    17    8   74 1    
    18    8   75 1    
    19    9   10 ar   
    20    9   14 ar   
    21   10   11 ar   
    22   10   76 1    
    23   11   12 ar   
    24   11   48 1    
    25   12   13 ar   
    26   12   77 1    
    27   13   14 ar   
    28   13   15 1    
    29   14   78 1    
    30   15   16 1    
    31   15   79 1    
    32   15   80 1    
    33   16   17 1    
    34   17   18 1    
    35   17   81 1    
    36   17   82 1    
    37   18   19 1    
    38   18   22 1    
    39   18   83 1    
    40   19   20 am   BACKBONE|DICT|INTERRES
    41   19   21 2    
    42   20   84 1    
    43   20   85 1    
    44   22   23 am   BACKBONE|DICT|INTERRES
    45   22   86 1    
    46   23   24 2    
    47   23   25 1    
    48   25   26 1    
    49   25   27 1    
    50   25   87 1    
    51   26   88 1    
    52   26   89 1    
    53   26   90 1    
    54   27   28 am   BACKBONE|DICT|INTERRES
    55   27   91 1    
    56   28   29 2    
    57   28   30 1    
    58   30   31 1    
    59   30   32 1    
    60   30   92 1    
    61   31   93 1    
    62   31   94 1    
    63   31   95 1    
    64   32   33 am   BACKBONE|DICT|INTERRES
    65   32   96 1    
    66   33   34 2    
    67   33   35 1    
    68   35   36 1    
    69   35   37 1    
    70   35   97 1    
    71   36   98 1    
    72   36   99 1    
    73   36  100 1    
    74   37   38 am   BACKBONE|DICT|INTERRES
    75   37  101 1    
    76   38   39 2    
    77   38   40 1    
    78   40   41 1    
    79   40   42 1    
    80   40  102 1    
    81   41  103 1    
    82   41  104 1    
    83   41  105 1    
    84   42   43 am   BACKBONE|DICT|INTERRES
    85   42  106 1    
    86   43   44 2    
    87   43   45 1    
    88   45   46 1    
    89   45   49 1    
    90   45  107 1    
    91   46   47 1    
    92   46  108 1    
    93   46  109 1    
    94   47   48 1    
    95   48  110 1    
    96   48  111 1    
    97   49   50 am   BACKBONE|DICT|INTERRES
    98   49  112 1    
    99   50   51 2    
   100   50   52 1    
   101   52   53 1    
   102   52   54 1    
   103   52  113 1    
   104   53  114 1    
   105   53  115 1    
   106   53  116 1    
   107   54   55 am   BACKBONE|DICT|INTERRES
   108   54  117 1    
   109   55   56 2    
   110   55   57 1    
   111   57   58 1    
   112   57   59 1    
   113   57  118 1    
   114   58  119 1    
   115   58  120 1    
   116   58  121 1    
   117   59   60 am   BACKBONE|DICT|INTERRES
   118   59  122 1    
   119   60   61 2    
   120   60   62 1    
   121   62   63 1    
   122   62   64 1    
   123   62  123 1    
   124   63  124 1    
   125   63  125 1    
   126   63  126 1    
   127   64   65 am   BACKBONE|DICT|INTERRES
   128   64  127 1    
   129   65   66 2    
@<TRIPOS>SUBSTRUCTURE
     1 UNK         1 GROUP             0       ****    0 ROOT    
