@<TRIPOS>MOLECULE
3R135
127   129    1
SMALL
USER_CHARGES


@<TRIPOS>ATOM
      1 CA        -84.2533   30.6086  -76.8310 C.3       0 UNK        -0.1998 
      2 C         -83.1186   29.6264  -76.5804 C.2       0 UNK         0.4909 
      3 O         -82.5730   29.0656  -77.5320 O.2       0 UNK        -0.5240 
      4 N         -82.7535   29.4218  -75.3087 N.am      1 UNK        -0.4739 
      5 CA        -81.7157   28.4774  -74.8799 C.3       1 UNK         0.0864 
      6 C6        -81.2055   28.7952  -73.4537 C.3       11 UNK        -0.0881 
      7 S7        -80.2637   30.3557  -73.4194 S.3       11 UNK        -0.2682 
      8 C8        -79.5695   30.3245  -71.7377 C.3       11 UNK         0.0289 
      9 C9        -78.4407   29.3125  -71.5919 C.ar      11 UNK        -0.0687 
     10 C10       -78.6913   28.0500  -71.0450 C.ar      11 UNK        -0.0823 
     11 C11       -77.6520   27.1321  -70.8668 C.ar      11 UNK        -0.0830 
     12 C12       -76.3504   27.4930  -71.2248 C.ar      11 UNK        -0.1021 
     13 C13       -76.0882   28.7441  -71.7888 C.ar      11 UNK        -0.0753 
     14 C14       -77.1380   29.6495  -71.9740 C.ar      11 UNK        -0.0933 
     15 C15       -74.6729   29.1014  -72.2150 C.3       11 UNK         0.0166 
     16 S16       -73.9189   30.3010  -71.0732 S.3       11 UNK        -0.2615 
     17 C17       -72.1354   29.9813  -71.3012 C.3       11 UNK        -0.0865 
     18 CA        -71.5003   30.8107  -72.4486 C.3       10 UNK         0.0862 
     19 C         -69.9441   30.7633  -72.3685 C.2       10 UNK         0.5551 
     20 N         -69.2335   30.1855  -73.3308 N.am      10 UNK        -0.7319 
     21 O         -69.3690   31.2693  -71.4080 O.2       10 UNK        -0.5018 
     22 N         -72.0496   30.4167  -73.7537 N.am      10 UNK        -0.4509 
     23 C         -71.9725   31.1366  -74.8792 C.2       10 UNK         0.4899 
     24 O         -71.5371   32.2881  -74.9251 O.2       10 UNK        -0.4839 
     25 CA        -72.4582   30.4426  -76.1706 C.3       9 UNK         0.0222 
     26 CB        -71.7613   30.9928  -77.4327 C.3       9 UNK        -0.1966 
     27 N         -72.3673   28.9737  -76.1326 N.am      9 UNK        -0.4218 
     28 C         -71.2626   28.2317  -75.9335 C.2       9 UNK         0.5020 
     29 O         -70.1476   28.7149  -75.7316 O.2       9 UNK        -0.5274 
     30 CA        -71.4147   26.6980  -75.8967 C.3       8 UNK         0.0270 
     31 CB        -71.2436   26.1845  -74.4568 C.3       8 UNK        -0.1976 
     32 N         -72.6962   26.2237  -76.4232 N.am      8 UNK        -0.4313 
     33 C         -73.0204   26.1955  -77.7254 C.2       8 UNK         0.5041 
     34 O         -72.2281   26.4662  -78.6284 O.2       8 UNK        -0.5577 
     35 CA        -74.4757   25.8381  -78.0915 C.3       7 UNK         0.0284 
     36 CB        -74.5667   24.3862  -78.5874 C.3       7 UNK        -0.1958 
     37 N         -75.4347   26.0304  -76.9993 N.am      7 UNK        -0.4454 
     38 C         -75.6916   27.1906  -76.3782 C.2       7 UNK         0.5089 
     39 O         -75.1767   28.2636  -76.6925 O.2       7 UNK        -0.5125 
     40 CA        -76.6165   27.1317  -75.1532 C.3       6 UNK         0.0408 
     41 CB        -78.0226   27.6346  -75.5016 C.3       6 UNK        -0.1791 
     42 N         -76.6945   25.7997  -74.5385 N.am      6 UNK        -0.4762 
     43 C         -75.6790   25.2195  -73.8813 C.2       6 UNK         0.5007 
     44 O         -74.5604   25.7302  -73.8004 O.2       6 UNK        -0.5032 
     45 CA        -75.9094   23.8381  -73.2443 C.3       5 UNK         0.0783 
     46 C46       -76.3882   23.9166  -71.7715 C.3       11 UNK        -0.0857 
     47 S47       -78.1154   24.4822  -71.5559 S.3       11 UNK        -0.2512 
     48 C48       -77.9378   25.7615  -70.2702 C.3       11 UNK         0.0225 
     49 N         -76.7444   22.9513  -74.0632 N.am      5 UNK        -0.4615 
     50 C         -76.5312   21.6295  -74.1547 C.2       4 UNK         0.5053 
     51 O         -75.5743   21.0606  -73.6269 O.2       4 UNK        -0.5105 
     52 CA        -77.5447   20.7673  -74.9324 C.3       4 UNK         0.0263 
     53 CB        -78.4443   19.9946  -73.9533 C.3       4 UNK        -0.1981 
     54 N         -78.3929   21.5196  -75.8538 N.am      4 UNK        -0.4224 
     55 C         -77.9777   22.1150  -76.9787 C.2       3 UNK         0.4895 
     56 O         -76.8268   22.0413  -77.4084 O.2       3 UNK        -0.5091 
     57 CA        -79.0158   22.9576  -77.7445 C.3       3 UNK         0.0250 
     58 CB        -79.5264   22.1887  -78.9739 C.3       3 UNK        -0.1996 
     59 N         -80.1661   23.4097  -76.9458 N.am      3 UNK        -0.4254 
     60 C         -80.0857   24.1823  -75.8545 C.2       2 UNK         0.5004 
     61 O         -79.0211   24.5158  -75.3275 O.2       2 UNK        -0.5226 
     62 CA        -81.3953   24.6665  -75.2327 C.3       2 UNK         0.0269 
     63 CB        -81.6809   23.9401  -73.9069 C.3       2 UNK        -0.1926 
     64 N         -81.2249   26.0940  -75.0001 N.am      2 UNK        -0.4687 
     65 C         -82.1937   27.0135  -74.9876 C.2       1 UNK         0.5165 
     66 O         -83.3964   26.7426  -75.0469 O.2       1 UNK        -0.5079 
     67 H67       -85.0801   30.1060  -77.3322 H         1 UNK         0.0900 
     68 H68       -83.9111   31.4226  -77.4694 H         1 UNK         0.0900 
     69 H69       -84.6307   31.0405  -75.9042 H         1 UNK         0.0900 
     70 H70       -83.2433   29.9001  -74.5665 H         1 UNK         0.2959 
     71 H71       -80.8768   28.5811  -75.5722 H         1 UNK         0.1079 
     72 H72       -80.5514   28.0008  -73.0928 H         1 UNK         0.0837 
     73 H73       -82.0337   28.8551  -72.7450 H         1 UNK         0.0837 
     74 H74       -80.3652   30.1208  -71.0194 H         1 UNK         0.0685 
     75 H75       -79.1944   31.3204  -71.4974 H         1 UNK         0.0685 
     76 H76       -79.6976   27.7833  -70.7518 H         1 UNK         0.1434 
     77 H77       -75.5383   26.7957  -71.0792 H         1 UNK         0.1329 
     78 H78       -76.9378   30.6214  -72.4040 H         1 UNK         0.1335 
     79 H79       -74.6933   29.5232  -73.2207 H         1 UNK         0.0680 
     80 H80       -74.0600   28.2002  -72.2703 H         1 UNK         0.0680 
     81 H81       -71.6578   30.2267  -70.3503 H         1 UNK         0.1032 
     82 H82       -71.9602   28.9139  -71.4475 H         1 UNK         0.1032 
     83 H83       -71.7706   31.8561  -72.2866 H         1 UNK         0.0461 
     84 H84       -68.2291   30.1725  -73.2554 H         1 UNK         0.3453 
     85 H85       -69.6794   29.7618  -74.1384 H         1 UNK         0.3453 
     86 H86       -72.4073   29.4773  -73.8192 H         1 UNK         0.2984 
     87 H87       -73.5210   30.6743  -76.2535 H         1 UNK         0.0554 
     88 H88       -72.1303   30.5036  -78.3341 H         1 UNK         0.0847 
     89 H89       -70.6809   30.8502  -77.3920 H         1 UNK         0.0847 
     90 H90       -71.9439   32.0618  -77.5490 H         1 UNK         0.0847 
     91 H91       -73.2491   28.4947  -76.2940 H         1 UNK         0.3141 
     92 H92       -70.6134   26.2762  -76.5071 H         1 UNK         0.0743 
     93 H93       -70.2665   26.4600  -74.0571 H         1 UNK         0.0784 
     94 H94       -71.9969   26.5995  -73.7861 H         1 UNK         0.0784 
     95 H95       -71.3160   25.0978  -74.4104 H         1 UNK         0.0784 
     96 H96       -73.4030   25.9815  -75.7386 H         1 UNK         0.3213 
     97 H97       -74.7720   26.5001  -78.9079 H         1 UNK         0.0855 
     98 H98       -74.3181   23.6731  -77.8001 H         1 UNK         0.0814 
     99 H99       -73.8783   24.2112  -79.4155 H         1 UNK         0.0814 
    100 H100      -75.5685   24.1505  -78.9473 H         1 UNK         0.0814 
    101 H101      -75.9043   25.2053  -76.6549 H         1 UNK         0.3105 
    102 H102      -76.2000   27.8138  -74.4118 H         1 UNK         0.0547 
    103 H103      -78.6500   27.6616  -74.6121 H         1 UNK         0.0837 
    104 H104      -77.9850   28.6503  -75.8980 H         1 UNK         0.0837 
    105 H105      -78.5036   27.0083  -76.2532 H         1 UNK         0.0837 
    106 H106      -77.5889   25.3188  -74.6167 H         1 UNK         0.3020 
    107 H107      -74.9050   23.4082  -73.2133 H         1 UNK         0.1245 
    108 H108      -75.7080   24.5373  -71.1881 H         1 UNK         0.0781 
    109 H109      -76.3184   22.9252  -71.3214 H         1 UNK         0.0781 
    110 H110      -77.1554   25.4834  -69.5626 H         1 UNK         0.0836 
    111 H111      -78.8616   25.7949  -69.6907 H         1 UNK         0.0836 
    112 H112      -77.5551   23.3635  -74.5122 H         1 UNK         0.3022 
    113 H113      -76.9729   20.0436  -75.5173 H         1 UNK         0.0747 
    114 H114      -79.1181   19.3186  -74.4801 H         1 UNK         0.0793 
    115 H115      -77.8482   19.3867  -73.2710 H         1 UNK         0.0793 
    116 H116      -79.0492   20.6682  -73.3445 H         1 UNK         0.0793 
    117 H117      -79.3577   21.6421  -75.5845 H         1 UNK         0.3047 
    118 H118      -78.4952   23.8516  -78.0947 H         1 UNK         0.0822 
    119 H119      -78.6973   21.8639  -79.6046 H         1 UNK         0.0807 
    120 H120      -80.1740   22.8108  -79.5920 H         1 UNK         0.0807 
    121 H121      -80.0868   21.2975  -78.6884 H         1 UNK         0.0807 
    122 H122      -81.0792   23.1671  -77.3040 H         1 UNK         0.2946 
    123 H123      -82.2188   24.5013  -75.9315 H         1 UNK         0.1144 
    124 H124      -81.7934   22.8669  -74.0648 H         1 UNK         0.0793 
    125 H125      -82.6027   24.2990  -73.4490 H         1 UNK         0.0793 
    126 H126      -80.8734   24.0828  -73.1870 H         1 UNK         0.0793 
    127 H127      -80.2562   26.3781  -74.9394 H         1 UNK         0.2896 
@<TRIPOS>BOND
     1    1    2 1    
     2    1   67 1    
     3    1   68 1    
     4    1   69 1    
     5    2    3 2    
     6    2    4 am   BACKBONE|DICT|INTERRES
     7    4    5 1    
     8    4   70 1    
     9    5    6 1    
    10    5   65 1    
    11    5   71 1    
    12    6    7 1    
    13    6   72 1    
    14    6   73 1    
    15    7    8 1    
    16    8    9 1    
    17    8   74 1    
    18    8   75 1    
    19    9   10 ar   
    20    9   14 ar   
    21   10   11 ar   
    22   10   76 1    
    23   11   12 ar   
    24   11   48 1    
    25   12   13 ar   
    26   12   77 1    
    27   13   14 ar   
    28   13   15 1    
    29   14   78 1    
    30   15   16 1    
    31   15   79 1    
    32   15   80 1    
    33   16   17 1    
    34   17   18 1    
    35   17   81 1    
    36   17   82 1    
    37   18   19 1    
    38   18   22 1    
    39   18   83 1    
    40   19   20 am   BACKBONE|DICT|INTERRES
    41   19   21 2    
    42   20   84 1    
    43   20   85 1    
    44   22   23 am   BACKBONE|DICT|INTERRES
    45   22   86 1    
    46   23   24 2    
    47   23   25 1    
    48   25   26 1    
    49   25   27 1    
    50   25   87 1    
    51   26   88 1    
    52   26   89 1    
    53   26   90 1    
    54   27   28 am   BACKBONE|DICT|INTERRES
    55   27   91 1    
    56   28   29 2    
    57   28   30 1    
    58   30   31 1    
    59   30   32 1    
    60   30   92 1    
    61   31   93 1    
    62   31   94 1    
    63   31   95 1    
    64   32   33 am   BACKBONE|DICT|INTERRES
    65   32   96 1    
    66   33   34 2    
    67   33   35 1    
    68   35   36 1    
    69   35   37 1    
    70   35   97 1    
    71   36   98 1    
    72   36   99 1    
    73   36  100 1    
    74   37   38 am   BACKBONE|DICT|INTERRES
    75   37  101 1    
    76   38   39 2    
    77   38   40 1    
    78   40   41 1    
    79   40   42 1    
    80   40  102 1    
    81   41  103 1    
    82   41  104 1    
    83   41  105 1    
    84   42   43 am   BACKBONE|DICT|INTERRES
    85   42  106 1    
    86   43   44 2    
    87   43   45 1    
    88   45   46 1    
    89   45   49 1    
    90   45  107 1    
    91   46   47 1    
    92   46  108 1    
    93   46  109 1    
    94   47   48 1    
    95   48  110 1    
    96   48  111 1    
    97   49   50 am   BACKBONE|DICT|INTERRES
    98   49  112 1    
    99   50   51 2    
   100   50   52 1    
   101   52   53 1    
   102   52   54 1    
   103   52  113 1    
   104   53  114 1    
   105   53  115 1    
   106   53  116 1    
   107   54   55 am   BACKBONE|DICT|INTERRES
   108   54  117 1    
   109   55   56 2    
   110   55   57 1    
   111   57   58 1    
   112   57   59 1    
   113   57  118 1    
   114   58  119 1    
   115   58  120 1    
   116   58  121 1    
   117   59   60 am   BACKBONE|DICT|INTERRES
   118   59  122 1    
   119   60   61 2    
   120   60   62 1    
   121   62   63 1    
   122   62   64 1    
   123   62  123 1    
   124   63  124 1    
   125   63  125 1    
   126   63  126 1    
   127   64   65 am   BACKBONE|DICT|INTERRES
   128   64  127 1    
   129   65   66 2    
@<TRIPOS>SUBSTRUCTURE
     1 UNK         1 GROUP             0       ****    0 ROOT    
