@<TRIPOS>MOLECULE
3R135
127   129    1
SMALL
USER_CHARGES


@<TRIPOS>ATOM
      1 CA        -83.4645   23.2989  -73.6411 C.3       0 UNK        -0.1998 
      2 C         -82.9043   24.7031  -73.8034 C.2       0 UNK         0.4909 
      3 O         -82.9199   25.2476  -74.9079 O.2       0 UNK        -0.5240 
      4 N         -82.4128   25.2988  -72.7090 N.am      1 UNK        -0.4739 
      5 CA        -81.8607   26.6571  -72.6839 C.3       1 UNK         0.0864 
      6 C6        -81.6848   27.1742  -71.2352 C.3       11 UNK        -0.0881 
      7 S7        -81.7243   28.9996  -71.1487 S.3       11 UNK        -0.2682 
      8 C8        -80.3544   29.3768  -70.0090 C.3       11 UNK         0.0289 
      9 C9        -78.9935   29.0796  -70.6212 C.ar      11 UNK        -0.0687 
     10 C10       -78.3124   27.9078  -70.2788 C.ar      11 UNK        -0.0823 
     11 C11       -77.0676   27.6212  -70.8421 C.ar      11 UNK        -0.0830 
     12 C12       -76.4939   28.5282  -71.7369 C.ar      11 UNK        -0.1021 
     13 C13       -77.1613   29.7038  -72.0882 C.ar      11 UNK        -0.0753 
     14 C14       -78.4120   29.9765  -71.5245 C.ar      11 UNK        -0.0933 
     15 C15       -76.5535   30.6450  -73.1186 C.3       11 UNK         0.0166 
     16 S16       -75.5656   31.9825  -72.3752 S.3       11 UNK        -0.2615 
     17 C17       -74.0903   31.1203  -71.7290 C.3       11 UNK        -0.0865 
     18 CA        -72.9200   31.0532  -72.7464 C.3       10 UNK         0.0862 
     19 C         -71.6173   30.6034  -72.0395 C.2       10 UNK         0.5551 
     20 N         -70.7497   31.5380  -71.6781 N.am      10 UNK        -0.7319 
     21 O         -71.4084   29.4194  -71.7809 O.2       10 UNK        -0.5018 
     22 N         -73.2061   30.1246  -73.8470 N.am      10 UNK        -0.4509 
     23 C         -73.2557   30.4404  -75.1458 C.2       10 UNK         0.4899 
     24 O         -73.1628   31.5901  -75.5791 O.2       10 UNK        -0.4839 
     25 CA        -73.4459   29.2599  -76.1224 C.3       9 UNK         0.0222 
     26 CB        -73.1600   29.6391  -77.5904 C.3       9 UNK        -0.1966 
     27 N         -72.6892   28.0584  -75.7443 N.am      9 UNK        -0.4218 
     28 C         -71.3605   27.9430  -75.5788 C.2       9 UNK         0.5020 
     29 O         -70.5590   28.8661  -75.7261 O.2       9 UNK        -0.5274 
     30 CA        -70.8355   26.5528  -75.1899 C.3       8 UNK         0.0270 
     31 CB        -71.0970   26.2724  -73.7000 C.3       8 UNK        -0.1976 
     32 N         -71.4696   25.5115  -75.9995 N.am      8 UNK        -0.4313 
     33 C         -70.9087   24.9030  -77.0534 C.2       8 UNK         0.5041 
     34 O         -69.7492   25.0963  -77.4218 O.2       8 UNK        -0.5577 
     35 CA        -71.7850   23.9046  -77.8369 C.3       7 UNK         0.0284 
     36 CB        -71.5639   22.4743  -77.3187 C.3       7 UNK        -0.1958 
     37 N         -73.2148   24.2223  -77.7819 N.am      7 UNK        -0.4454 
     38 C         -73.7770   25.2977  -78.3508 C.2       7 UNK         0.5089 
     39 O         -73.1691   26.0734  -79.0885 O.2       7 UNK        -0.5125 
     40 CA        -75.2566   25.5800  -78.0261 C.3       6 UNK         0.0408 
     41 CB        -76.1510   25.1642  -79.2038 C.3       6 UNK        -0.1791 
     42 N         -75.7729   24.9736  -76.7893 N.am      6 UNK        -0.4762 
     43 C         -75.2855   25.1602  -75.5529 C.2       6 UNK         0.5007 
     44 O         -74.2368   25.7712  -75.3394 O.2       6 UNK        -0.5032 
     45 CA        -76.0747   24.5966  -74.3479 C.3       5 UNK         0.0783 
     46 C46       -76.1061   25.6316  -73.2014 C.3       11 UNK        -0.0857 
     47 S47       -76.8175   24.9864  -71.6531 S.3       11 UNK        -0.2512 
     48 C48       -76.3540   26.3207  -70.5021 C.3       11 UNK         0.0225 
     49 N         -77.4296   24.1632  -74.7024 N.am      5 UNK        -0.4615 
     50 C         -77.7491   22.9742  -75.2245 C.2       4 UNK         0.5053 
     51 O         -76.9263   22.0982  -75.4887 O.2       4 UNK        -0.5105 
     52 CA        -79.2340   22.7470  -75.5398 C.3       4 UNK         0.0263 
     53 CB        -79.9938   22.3018  -74.2809 C.3       4 UNK        -0.1981 
     54 N         -79.8513   23.9514  -76.1039 N.am      4 UNK        -0.4224 
     55 C         -79.6843   24.3471  -77.3751 C.2       3 UNK         0.4895 
     56 O         -79.0723   23.6899  -78.2168 O.2       3 UNK        -0.5091 
     57 CA        -80.2749   25.7085  -77.7797 C.3       3 UNK         0.0250 
     58 CB        -81.7169   25.5473  -78.2860 C.3       3 UNK        -0.1996 
     59 N         -80.2389   26.6855  -76.6896 N.am      3 UNK        -0.4254 
     60 C         -79.1258   27.3068  -76.2691 C.2       2 UNK         0.5004 
     61 O         -78.0289   27.1771  -76.8080 O.2       2 UNK        -0.5226 
     62 CA        -79.2406   28.2231  -75.0367 C.3       2 UNK         0.0269 
     63 CB        -79.3333   29.6930  -75.4749 C.3       2 UNK        -0.1926 
     64 N         -80.3759   27.9176  -74.1628 N.am      2 UNK        -0.4687 
     65 C         -80.5619   26.7615  -73.5131 C.2       1 UNK         0.5165 
     66 O         -79.7851   25.8043  -73.5858 O.2       1 UNK        -0.5079 
     67 H67       -82.9859   22.7692  -72.8177 H         1 UNK         0.0900 
     68 H68       -83.3114   22.7204  -74.5516 H         1 UNK         0.0900 
     69 H69       -84.5356   23.3441  -73.4466 H         1 UNK         0.0900 
     70 H70       -82.3905   24.7944  -71.8344 H         1 UNK         0.2959 
     71 H71       -82.6108   27.2839  -73.1727 H         1 UNK         0.1079 
     72 H72       -82.5060   26.8204  -70.6098 H         1 UNK         0.0837 
     73 H73       -80.7781   26.7717  -70.7834 H         1 UNK         0.0837 
     74 H74       -80.4927   28.8198  -69.0809 H         1 UNK         0.0685 
     75 H75       -80.4044   30.4326  -69.7388 H         1 UNK         0.0685 
     76 H76       -78.7567   27.2083  -69.5840 H         1 UNK         0.1434 
     77 H77       -75.5352   28.3043  -72.1827 H         1 UNK         0.1329 
     78 H78       -78.9395   30.8801  -71.7977 H         1 UNK         0.1335 
     79 H79       -75.9497   30.0852  -73.8323 H         1 UNK         0.0680 
     80 H80       -77.3495   31.1052  -73.7039 H         1 UNK         0.0680 
     81 H81       -73.7789   31.6787  -70.8438 H         1 UNK         0.1032 
     82 H82       -74.3510   30.1287  -71.3623 H         1 UNK         0.1032 
     83 H83       -72.7543   32.0581  -73.1405 H         1 UNK         0.0461 
     84 H84       -69.9039   31.2631  -71.2033 H         1 UNK         0.3453 
     85 H85       -70.9187   32.5123  -71.8757 H         1 UNK         0.3453 
     86 H86       -73.2071   29.1482  -73.5906 H         1 UNK         0.2984 
     87 H87       -74.4992   28.9825  -76.0569 H         1 UNK         0.0554 
     88 H88       -73.8100   30.4504  -77.9202 H         1 UNK         0.0847 
     89 H89       -73.3334   28.7954  -78.2584 H         1 UNK         0.0847 
     90 H90       -72.1302   29.9697  -77.7289 H         1 UNK         0.0847 
     91 H91       -73.2579   27.2290  -75.5783 H         1 UNK         0.3141 
     92 H92       -69.7548   26.5463  -75.3476 H         1 UNK         0.0743 
     93 H93       -70.6330   27.0356  -73.0735 H         1 UNK         0.0784 
     94 H94       -72.1620   26.2606  -73.4649 H         1 UNK         0.0784 
     95 H95       -70.6791   25.3111  -73.4010 H         1 UNK         0.0784 
     96 H96       -72.4483   25.3258  -75.8006 H         1 UNK         0.3213 
     97 H97       -71.4708   23.9429  -78.8823 H         1 UNK         0.0855 
     98 H98       -71.8746   22.3675  -76.2786 H         1 UNK         0.0814 
     99 H99       -70.5094   22.1996  -77.3730 H         1 UNK         0.0814 
    100 H100      -72.1169   21.7462  -77.9125 H         1 UNK         0.0814 
    101 H101      -73.7990   23.6317  -77.2080 H         1 UNK         0.3105 
    102 H102      -75.3455   26.6616  -77.9049 H         1 UNK         0.0547 
    103 H103      -75.7864   25.5816  -80.1435 H         1 UNK         0.0837 
    104 H104      -76.1907   24.0805  -79.3193 H         1 UNK         0.0837 
    105 H105      -77.1699   25.5266  -79.0693 H         1 UNK         0.0837 
    106 H106      -76.6425   24.4670  -76.8739 H         1 UNK         0.3020 
    107 H107      -75.5112   23.7284  -73.9985 H         1 UNK         0.1245 
    108 H108      -76.6845   26.5018  -73.5141 H         1 UNK         0.0781 
    109 H109      -75.1002   25.9868  -72.9689 H         1 UNK         0.0781 
    110 H110      -76.6029   26.0128  -69.4854 H         1 UNK         0.0836 
    111 H111      -75.2723   26.4633  -70.5187 H         1 UNK         0.0836 
    112 H112      -78.1785   24.8047  -74.4624 H         1 UNK         0.3022 
    113 H113      -79.2987   21.9399  -76.2731 H         1 UNK         0.0747 
    114 H114      -79.5140   21.4365  -73.8213 H         1 UNK         0.0793 
    115 H115      -81.0136   22.0085  -74.5241 H         1 UNK         0.0793 
    116 H116      -80.0348   23.0892  -73.5273 H         1 UNK         0.0793 
    117 H117      -80.3383   24.5631  -75.4613 H         1 UNK         0.3047 
    118 H118      -79.6720   26.0964  -78.6039 H         1 UNK         0.0822 
    119 H119      -81.7570   24.8574  -79.1302 H         1 UNK         0.0807 
    120 H120      -82.1272   26.4982  -78.6263 H         1 UNK         0.0807 
    121 H121      -82.3777   25.1530  -77.5138 H         1 UNK         0.0807 
    122 H122      -81.1011   26.8429  -76.1863 H         1 UNK         0.2946 
    123 H123      -78.3301   28.0927  -74.4480 H         1 UNK         0.1144 
    124 H124      -78.4489   29.9866  -76.0422 H         1 UNK         0.0793 
    125 H125      -79.4069   30.3611  -74.6172 H         1 UNK         0.0793 
    126 H126      -80.2023   29.8701  -76.1099 H         1 UNK         0.0793 
    127 H127      -81.0523   28.6567  -74.0329 H         1 UNK         0.2896 
@<TRIPOS>BOND
     1    1    2 1    
     2    1   67 1    
     3    1   68 1    
     4    1   69 1    
     5    2    3 2    
     6    2    4 am   BACKBONE|DICT|INTERRES
     7    4    5 1    
     8    4   70 1    
     9    5    6 1    
    10    5   65 1    
    11    5   71 1    
    12    6    7 1    
    13    6   72 1    
    14    6   73 1    
    15    7    8 1    
    16    8    9 1    
    17    8   74 1    
    18    8   75 1    
    19    9   10 ar   
    20    9   14 ar   
    21   10   11 ar   
    22   10   76 1    
    23   11   12 ar   
    24   11   48 1    
    25   12   13 ar   
    26   12   77 1    
    27   13   14 ar   
    28   13   15 1    
    29   14   78 1    
    30   15   16 1    
    31   15   79 1    
    32   15   80 1    
    33   16   17 1    
    34   17   18 1    
    35   17   81 1    
    36   17   82 1    
    37   18   19 1    
    38   18   22 1    
    39   18   83 1    
    40   19   20 am   BACKBONE|DICT|INTERRES
    41   19   21 2    
    42   20   84 1    
    43   20   85 1    
    44   22   23 am   BACKBONE|DICT|INTERRES
    45   22   86 1    
    46   23   24 2    
    47   23   25 1    
    48   25   26 1    
    49   25   27 1    
    50   25   87 1    
    51   26   88 1    
    52   26   89 1    
    53   26   90 1    
    54   27   28 am   BACKBONE|DICT|INTERRES
    55   27   91 1    
    56   28   29 2    
    57   28   30 1    
    58   30   31 1    
    59   30   32 1    
    60   30   92 1    
    61   31   93 1    
    62   31   94 1    
    63   31   95 1    
    64   32   33 am   BACKBONE|DICT|INTERRES
    65   32   96 1    
    66   33   34 2    
    67   33   35 1    
    68   35   36 1    
    69   35   37 1    
    70   35   97 1    
    71   36   98 1    
    72   36   99 1    
    73   36  100 1    
    74   37   38 am   BACKBONE|DICT|INTERRES
    75   37  101 1    
    76   38   39 2    
    77   38   40 1    
    78   40   41 1    
    79   40   42 1    
    80   40  102 1    
    81   41  103 1    
    82   41  104 1    
    83   41  105 1    
    84   42   43 am   BACKBONE|DICT|INTERRES
    85   42  106 1    
    86   43   44 2    
    87   43   45 1    
    88   45   46 1    
    89   45   49 1    
    90   45  107 1    
    91   46   47 1    
    92   46  108 1    
    93   46  109 1    
    94   47   48 1    
    95   48  110 1    
    96   48  111 1    
    97   49   50 am   BACKBONE|DICT|INTERRES
    98   49  112 1    
    99   50   51 2    
   100   50   52 1    
   101   52   53 1    
   102   52   54 1    
   103   52  113 1    
   104   53  114 1    
   105   53  115 1    
   106   53  116 1    
   107   54   55 am   BACKBONE|DICT|INTERRES
   108   54  117 1    
   109   55   56 2    
   110   55   57 1    
   111   57   58 1    
   112   57   59 1    
   113   57  118 1    
   114   58  119 1    
   115   58  120 1    
   116   58  121 1    
   117   59   60 am   BACKBONE|DICT|INTERRES
   118   59  122 1    
   119   60   61 2    
   120   60   62 1    
   121   62   63 1    
   122   62   64 1    
   123   62  123 1    
   124   63  124 1    
   125   63  125 1    
   126   63  126 1    
   127   64   65 am   BACKBONE|DICT|INTERRES
   128   64  127 1    
   129   65   66 2    
@<TRIPOS>SUBSTRUCTURE
     1 UNK         1 GROUP             0       ****    0 ROOT    
