@<TRIPOS>MOLECULE
3R135
127   129    1
SMALL
USER_CHARGES


@<TRIPOS>ATOM
      1 CA        -79.7583   22.4296  -71.0811 C.3       0 UNK        -0.1998 
      2 C         -80.5733   23.4887  -71.8071 C.2       0 UNK         0.4909 
      3 O         -81.2803   23.1671  -72.7632 O.2       0 UNK        -0.5240 
      4 N         -80.4726   24.7507  -71.3650 N.am      1 UNK        -0.4739 
      5 CA        -81.1221   25.9234  -71.9631 C.3       1 UNK         0.0864 
      6 C6        -80.8384   27.1931  -71.1244 C.3       11 UNK        -0.0881 
      7 S7        -81.6956   28.6916  -71.7299 S.3       11 UNK        -0.2682 
      8 C8        -80.6319   30.0300  -71.0936 C.3       11 UNK         0.0289 
      9 C9        -79.2503   30.0310  -71.7349 C.ar      11 UNK        -0.0687 
     10 C10       -79.0539   30.5985  -72.9990 C.ar      11 UNK        -0.0823 
     11 C11       -77.7885   30.5772  -73.5976 C.ar      11 UNK        -0.0830 
     12 C12       -76.7193   29.9878  -72.9172 C.ar      11 UNK        -0.1021 
     13 C13       -76.8997   29.4359  -71.6472 C.ar      11 UNK        -0.0753 
     14 C14       -78.1640   29.4689  -71.0566 C.ar      11 UNK        -0.0933 
     15 C15       -75.7237   28.8070  -70.9207 C.3       11 UNK         0.0166 
     16 S16       -74.6810   30.0862  -70.1557 S.3       11 UNK        -0.2615 
     17 C17       -73.1019   29.1920  -69.9539 C.3       11 UNK        -0.0865 
     18 CA        -72.0101   29.6721  -70.9609 C.3       10 UNK         0.0862 
     19 C         -70.5957   29.0591  -70.7098 C.2       10 UNK         0.5551 
     20 N         -70.2495   28.7145  -69.4757 N.am      10 UNK        -0.7319 
     21 O         -69.7747   28.9468  -71.6181 O.2       10 UNK        -0.5018 
     22 N         -72.4480   29.5711  -72.3658 N.am      10 UNK        -0.4509 
     23 C         -72.6921   28.4369  -73.0355 C.2       10 UNK         0.4899 
     24 O         -72.5875   27.3123  -72.5407 O.2       10 UNK        -0.4839 
     25 CA        -73.2052   28.5642  -74.4845 C.3       9 UNK         0.0222 
     26 CB        -73.0893   29.9774  -75.1020 C.3       9 UNK        -0.1966 
     27 N         -72.6064   27.5441  -75.3510 N.am      9 UNK        -0.4218 
     28 C         -71.3081   27.4191  -75.6674 C.2       9 UNK         0.5020 
     29 O         -70.4466   28.2473  -75.3673 O.2       9 UNK        -0.5274 
     30 CA        -70.8659   26.1511  -76.4228 C.3       8 UNK         0.0270 
     31 CB        -70.0336   25.2442  -75.4994 C.3       8 UNK        -0.1976 
     32 N         -71.9632   25.3611  -76.9864 N.am      8 UNK        -0.4313 
     33 C         -72.6427   25.6681  -78.0981 C.2       8 UNK         0.5041 
     34 O         -72.4466   26.6938  -78.7523 O.2       8 UNK        -0.5577 
     35 CA        -73.6956   24.6559  -78.5819 C.3       7 UNK         0.0284 
     36 CB        -73.8144   23.3906  -77.7058 C.3       7 UNK        -0.1958 
     37 N         -74.9965   25.3142  -78.6344 N.am      7 UNK        -0.4454 
     38 C         -75.6380   25.6847  -79.7492 C.2       7 UNK         0.5089 
     39 O         -75.2053   25.4857  -80.8856 O.2       7 UNK        -0.5125 
     40 CA        -77.0107   26.3682  -79.5896 C.3       6 UNK         0.0408 
     41 CB        -78.1272   25.4464  -80.1072 C.3       6 UNK        -0.1791 
     42 N         -77.3232   26.7615  -78.2124 N.am      6 UNK        -0.4762 
     43 C         -76.7982   27.8234  -77.5841 C.2       6 UNK         0.5007 
     44 O         -76.0035   28.6034  -78.1091 O.2       6 UNK        -0.5032 
     45 CA        -77.2014   28.0255  -76.1093 C.3       5 UNK         0.0783 
     46 C46       -78.5840   28.7135  -75.9853 C.3       11 UNK        -0.0857 
     47 S47       -78.5922   30.5097  -76.3013 S.3       11 UNK        -0.2512 
     48 C48       -77.5544   31.2041  -74.9682 C.3       11 UNK         0.0225 
     49 N         -77.1778   26.7872  -75.3234 N.am      5 UNK        -0.4615 
     50 C         -76.1443   25.9472  -75.1745 C.2       4 UNK         0.5053 
     51 O         -75.0562   26.0790  -75.7328 O.2       4 UNK        -0.5105 
     52 CA        -76.3835   24.7330  -74.2688 C.3       4 UNK         0.0263 
     53 CB        -76.3730   25.1435  -72.7860 C.3       4 UNK        -0.1981 
     54 N         -77.6541   24.0919  -74.6079 N.am      4 UNK        -0.4224 
     55 C         -77.8029   23.2126  -75.6102 C.2       3 UNK         0.4895 
     56 O         -76.8651   22.7517  -76.2602 O.2       3 UNK        -0.5091 
     57 CA        -79.2358   22.7798  -75.9689 C.3       3 UNK         0.0250 
     58 CB        -79.5967   21.4632  -75.2634 C.3       3 UNK        -0.1996 
     59 N         -80.2453   23.7974  -75.6633 N.am      3 UNK        -0.4254 
     60 C         -80.3538   24.9665  -76.3140 C.2       2 UNK         0.5004 
     61 O         -79.6243   25.2999  -77.2466 O.2       2 UNK        -0.5226 
     62 CA        -81.4181   25.9582  -75.8118 C.3       2 UNK         0.0269 
     63 CB        -82.7531   25.7210  -76.5343 C.3       2 UNK        -0.1926 
     64 N         -81.6345   25.9224  -74.3627 N.am      2 UNK        -0.4687 
     65 C         -80.6821   26.0820  -73.4328 C.2       1 UNK         0.5165 
     66 O         -79.4930   26.2816  -73.6938 O.2       1 UNK        -0.5079 
     67 H67       -78.9813   22.0390  -71.7375 H         1 UNK         0.0900 
     68 H68       -80.4005   21.6019  -70.7817 H         1 UNK         0.0900 
     69 H69       -79.2792   22.8264  -70.1863 H         1 UNK         0.0900 
     70 H70       -79.8608   24.9458  -70.5857 H         1 UNK         0.2959 
     71 H71       -82.1985   25.7403  -71.9398 H         1 UNK         0.1079 
     72 H72       -81.1476   27.0321  -70.0904 H         1 UNK         0.0837 
     73 H73       -79.7638   27.3660  -71.0925 H         1 UNK         0.0837 
     74 H74       -81.1201   30.9868  -71.2840 H         1 UNK         0.0685 
     75 H75       -80.5528   29.9406  -70.0089 H         1 UNK         0.0685 
     76 H76       -79.8882   31.0441  -73.5236 H         1 UNK         0.1434 
     77 H77       -75.7364   29.9716  -73.3646 H         1 UNK         0.1329 
     78 H78       -78.3053   29.0443  -70.0721 H         1 UNK         0.1335 
     79 H79       -76.0673   28.1145  -70.1507 H         1 UNK         0.0680 
     80 H80       -75.1450   28.2136  -71.6276 H         1 UNK         0.0680 
     81 H81       -73.2622   28.1157  -70.0371 H         1 UNK         0.1032 
     82 H82       -72.7810   29.3679  -68.9266 H         1 UNK         0.1032 
     83 H83       -71.8695   30.7403  -70.7923 H         1 UNK         0.0461 
     84 H84       -69.3265   28.3412  -69.3172 H         1 UNK         0.3453 
     85 H85       -70.8825   28.8230  -68.6998 H         1 UNK         0.3453 
     86 H86       -72.5341   30.4480  -72.8572 H         1 UNK         0.2984 
     87 H87       -74.2668   28.3229  -74.4374 H         1 UNK         0.0554 
     88 H88       -73.4576   29.9834  -76.1283 H         1 UNK         0.0847 
     89 H89       -72.0597   30.3360  -75.1201 H         1 UNK         0.0847 
     90 H90       -73.6842   30.7060  -74.5506 H         1 UNK         0.0847 
     91 H91       -73.2467   26.8072  -75.6338 H         1 UNK         0.3141 
     92 H92       -70.2241   26.4766  -77.2444 H         1 UNK         0.0743 
     93 H93       -70.6197   24.8853  -74.6522 H         1 UNK         0.0784 
     94 H94       -69.6466   24.3771  -76.0350 H         1 UNK         0.0784 
     95 H95       -69.1743   25.7811  -75.0947 H         1 UNK         0.0784 
     96 H96       -72.2025   24.5077  -76.5023 H         1 UNK         0.3213 
     97 H97       -73.3871   24.3386  -79.5802 H         1 UNK         0.0855 
     98 H98       -74.1176   23.6216  -76.6838 H         1 UNK         0.0814 
     99 H99       -72.8733   22.8404  -77.6670 H         1 UNK         0.0814 
    100 H100      -74.5603   22.7077  -78.1136 H         1 UNK         0.0814 
    101 H101      -75.3830   25.5922  -77.7397 H         1 UNK         0.3105 
    102 H102      -77.0002   27.2668  -80.2099 H         1 UNK         0.0547 
    103 H103      -77.9608   25.1739  -81.1502 H         1 UNK         0.0837 
    104 H104      -78.1820   24.5209  -79.5324 H         1 UNK         0.0837 
    105 H105      -79.1014   25.9323  -80.0517 H         1 UNK         0.0837 
    106 H106      -78.0085   26.1871  -77.7246 H         1 UNK         0.3020 
    107 H107      -76.4447   28.6720  -75.6636 H         1 UNK         0.1245 
    108 H108      -78.9989   28.5608  -74.9885 H         1 UNK         0.0781 
    109 H109      -79.3015   28.2534  -76.6654 H         1 UNK         0.0781 
    110 H110      -77.7464   32.2757  -74.9010 H         1 UNK         0.0836 
    111 H111      -76.5085   31.1074  -75.2633 H         1 UNK         0.0836 
    112 H112      -78.0234   26.5916  -74.7924 H         1 UNK         0.3022 
    113 H113      -75.5668   24.0251  -74.4265 H         1 UNK         0.0747 
    114 H114      -76.5239   24.2813  -72.1365 H         1 UNK         0.0793 
    115 H115      -75.4144   25.5892  -72.5159 H         1 UNK         0.0793 
    116 H116      -77.1463   25.8762  -72.5531 H         1 UNK         0.0793 
    117 H117      -78.4828   24.4711  -74.1665 H         1 UNK         0.3047 
    118 H118      -79.2596   22.6028  -77.0465 H         1 UNK         0.0822 
    119 H119      -80.5916   21.1195  -75.5471 H         1 UNK         0.0807 
    120 H120      -79.5736   21.5647  -74.1785 H         1 UNK         0.0807 
    121 H121      -78.8931   20.6734  -75.5303 H         1 UNK         0.0807 
    122 H122      -80.8545   23.6179  -74.8724 H         1 UNK         0.2946 
    123 H123      -81.0735   26.9619  -76.0613 H         1 UNK         0.1144 
    124 H124      -83.4896   26.4796  -76.2684 H         1 UNK         0.0793 
    125 H125      -83.1743   24.7437  -76.2952 H         1 UNK         0.0793 
    126 H126      -82.6236   25.7644  -77.6169 H         1 UNK         0.0793 
    127 H127      -82.5776   25.7292  -74.0575 H         1 UNK         0.2896 
@<TRIPOS>BOND
     1    1    2 1    
     2    1   67 1    
     3    1   68 1    
     4    1   69 1    
     5    2    3 2    
     6    2    4 am   BACKBONE|DICT|INTERRES
     7    4    5 1    
     8    4   70 1    
     9    5    6 1    
    10    5   65 1    
    11    5   71 1    
    12    6    7 1    
    13    6   72 1    
    14    6   73 1    
    15    7    8 1    
    16    8    9 1    
    17    8   74 1    
    18    8   75 1    
    19    9   10 ar   
    20    9   14 ar   
    21   10   11 ar   
    22   10   76 1    
    23   11   12 ar   
    24   11   48 1    
    25   12   13 ar   
    26   12   77 1    
    27   13   14 ar   
    28   13   15 1    
    29   14   78 1    
    30   15   16 1    
    31   15   79 1    
    32   15   80 1    
    33   16   17 1    
    34   17   18 1    
    35   17   81 1    
    36   17   82 1    
    37   18   19 1    
    38   18   22 1    
    39   18   83 1    
    40   19   20 am   BACKBONE|DICT|INTERRES
    41   19   21 2    
    42   20   84 1    
    43   20   85 1    
    44   22   23 am   BACKBONE|DICT|INTERRES
    45   22   86 1    
    46   23   24 2    
    47   23   25 1    
    48   25   26 1    
    49   25   27 1    
    50   25   87 1    
    51   26   88 1    
    52   26   89 1    
    53   26   90 1    
    54   27   28 am   BACKBONE|DICT|INTERRES
    55   27   91 1    
    56   28   29 2    
    57   28   30 1    
    58   30   31 1    
    59   30   32 1    
    60   30   92 1    
    61   31   93 1    
    62   31   94 1    
    63   31   95 1    
    64   32   33 am   BACKBONE|DICT|INTERRES
    65   32   96 1    
    66   33   34 2    
    67   33   35 1    
    68   35   36 1    
    69   35   37 1    
    70   35   97 1    
    71   36   98 1    
    72   36   99 1    
    73   36  100 1    
    74   37   38 am   BACKBONE|DICT|INTERRES
    75   37  101 1    
    76   38   39 2    
    77   38   40 1    
    78   40   41 1    
    79   40   42 1    
    80   40  102 1    
    81   41  103 1    
    82   41  104 1    
    83   41  105 1    
    84   42   43 am   BACKBONE|DICT|INTERRES
    85   42  106 1    
    86   43   44 2    
    87   43   45 1    
    88   45   46 1    
    89   45   49 1    
    90   45  107 1    
    91   46   47 1    
    92   46  108 1    
    93   46  109 1    
    94   47   48 1    
    95   48  110 1    
    96   48  111 1    
    97   49   50 am   BACKBONE|DICT|INTERRES
    98   49  112 1    
    99   50   51 2    
   100   50   52 1    
   101   52   53 1    
   102   52   54 1    
   103   52  113 1    
   104   53  114 1    
   105   53  115 1    
   106   53  116 1    
   107   54   55 am   BACKBONE|DICT|INTERRES
   108   54  117 1    
   109   55   56 2    
   110   55   57 1    
   111   57   58 1    
   112   57   59 1    
   113   57  118 1    
   114   58  119 1    
   115   58  120 1    
   116   58  121 1    
   117   59   60 am   BACKBONE|DICT|INTERRES
   118   59  122 1    
   119   60   61 2    
   120   60   62 1    
   121   62   63 1    
   122   62   64 1    
   123   62  123 1    
   124   63  124 1    
   125   63  125 1    
   126   63  126 1    
   127   64   65 am   BACKBONE|DICT|INTERRES
   128   64  127 1    
   129   65   66 2    
@<TRIPOS>SUBSTRUCTURE
     1 UNK         1 GROUP             0       ****    0 ROOT    
