@<TRIPOS>MOLECULE
3R135
127   129    1
SMALL
USER_CHARGES


@<TRIPOS>ATOM
      1 CA        -81.9428   29.4754  -70.4226 C.3       0 UNK        -0.1998 
      2 C         -81.1264   28.9176  -71.5784 C.2       0 UNK         0.4909 
      3 O         -80.7313   29.6714  -72.4675 O.2       0 UNK        -0.5240 
      4 N         -80.8778   27.6012  -71.5747 N.am      1 UNK        -0.4739 
      5 CA        -80.0664   26.8977  -72.5799 C.3       1 UNK         0.0864 
      6 C6        -79.5069   25.5546  -72.0430 C.3       11 UNK        -0.0881 
      7 S7        -78.6092   25.7181  -70.4612 S.3       11 UNK        -0.2682 
      8 C8        -76.8871   25.9045  -71.0247 C.3       11 UNK         0.0289 
      9 C9        -76.6867   27.1936  -71.8075 C.ar      11 UNK        -0.0687 
     10 C10       -76.4228   27.1530  -73.1792 C.ar      11 UNK        -0.0823 
     11 C11       -76.2589   28.3364  -73.9065 C.ar      11 UNK        -0.0830 
     12 C12       -76.3710   29.5665  -73.2514 C.ar      11 UNK        -0.1021 
     13 C13       -76.6143   29.6202  -71.8756 C.ar      11 UNK        -0.0753 
     14 C14       -76.7726   28.4296  -71.1605 C.ar      11 UNK        -0.0933 
     15 C15       -76.7061   30.9553  -71.1509 C.3       11 UNK         0.0166 
     16 S16       -75.1783   31.2997  -70.2188 S.3       11 UNK        -0.2615 
     17 C17       -74.4439   32.6939  -71.1456 C.3       11 UNK        -0.0865 
     18 CA        -73.9063   32.3285  -72.5558 C.3       10 UNK         0.0862 
     19 C         -73.2728   33.5679  -73.2543 C.2       10 UNK         0.5551 
     20 N         -72.0133   33.5282  -73.6716 N.am      10 UNK        -0.7319 
     21 O         -73.9417   34.5843  -73.4244 O.2       10 UNK        -0.5018 
     22 N         -73.0550   31.1263  -72.5353 N.am      10 UNK        -0.4509 
     23 C         -72.8738   30.3137  -73.5819 C.2       10 UNK         0.4899 
     24 O         -73.3781   30.5026  -74.6918 O.2       10 UNK        -0.4839 
     25 CA        -72.0061   29.0689  -73.3250 C.3       9 UNK         0.0222 
     26 CB        -72.7601   28.0378  -72.4677 C.3       9 UNK        -0.1966 
     27 N         -71.6109   28.4310  -74.5795 N.am      9 UNK        -0.4218 
     28 C         -70.6589   28.8671  -75.4097 C.2       9 UNK         0.5020 
     29 O         -69.8900   29.7921  -75.1376 O.2       9 UNK        -0.5274 
     30 CA        -70.5550   28.1418  -76.7696 C.3       8 UNK         0.0270 
     31 CB        -69.3905   28.6648  -77.6326 C.3       8 UNK        -0.1976 
     32 N         -70.4348   26.6840  -76.6456 N.am      8 UNK        -0.4313 
     33 C         -71.4221   25.8408  -76.3207 C.2       8 UNK         0.5041 
     34 O         -72.5690   26.2027  -76.0314 O.2       8 UNK        -0.5577 
     35 CA        -71.0633   24.3508  -76.2819 C.3       7 UNK         0.0284 
     36 CB        -70.3160   23.9945  -74.9853 C.3       7 UNK        -0.1958 
     37 N         -72.3095   23.5993  -76.3429 N.am      7 UNK        -0.4454 
     38 C         -72.5434   22.4953  -77.0585 C.2       7 UNK         0.5089 
     39 O         -71.6747   21.8855  -77.6833 O.2       7 UNK        -0.5125 
     40 CA        -73.9979   21.9838  -77.0886 C.3       6 UNK         0.0408 
     41 CB        -74.1493   20.7414  -76.1964 C.3       6 UNK        -0.1791 
     42 N         -74.9780   22.9927  -76.6696 N.am      6 UNK        -0.4762 
     43 C         -75.3406   24.0661  -77.3865 C.2       6 UNK         0.5007 
     44 O         -74.9482   24.2839  -78.5339 O.2       6 UNK        -0.5032 
     45 CA        -76.3176   25.0383  -76.6958 C.3       5 UNK         0.0783 
     46 C46       -76.4121   26.4085  -77.4126 C.3       11 UNK        -0.0857 
     47 S47       -77.2872   27.6375  -76.3886 S.3       11 UNK        -0.2512 
     48 C48       -75.9097   28.2840  -75.3867 C.3       11 UNK         0.0225 
     49 N         -77.6285   24.3999  -76.5415 N.am      5 UNK        -0.4615 
     50 C         -77.9520   23.5382  -75.5690 C.2       4 UNK         0.5053 
     51 O         -77.1856   23.2492  -74.6482 O.2       4 UNK        -0.5105 
     52 CA        -79.3292   22.8607  -75.6648 C.3       4 UNK         0.0263 
     53 CB        -79.8992   22.4352  -74.2991 C.3       4 UNK        -0.1981 
     54 N         -80.3017   23.7066  -76.3600 N.am      4 UNK        -0.4224 
     55 C         -81.1749   23.2718  -77.2800 C.2       3 UNK         0.4895 
     56 O         -81.2217   22.1032  -77.6692 O.2       3 UNK        -0.5091 
     57 CA        -82.1468   24.3069  -77.8884 C.3       3 UNK         0.0250 
     58 CB        -83.4788   23.6736  -78.3465 C.3       3 UNK        -0.1996 
     59 N         -82.3921   25.4772  -77.0353 N.am      3 UNK        -0.4254 
     60 C         -82.9490   25.4939  -75.8149 C.2       2 UNK         0.5004 
     61 O         -83.3792   24.5009  -75.2246 O.2       2 UNK        -0.5226 
     62 CA        -82.9981   26.8658  -75.1211 C.3       2 UNK         0.0269 
     63 CB        -84.4344   27.2236  -74.7028 C.3       2 UNK        -0.1926 
     64 N         -82.1244   26.9325  -73.9466 N.am      2 UNK        -0.4687 
     65 C         -80.8054   26.6821  -73.9201 C.2       1 UNK         0.5165 
     66 O         -80.1690   26.2931  -74.9009 O.2       1 UNK        -0.5079 
     67 H67       -82.8534   29.9424  -70.7967 H         1 UNK         0.0900 
     68 H68       -81.3669   30.2305  -69.8882 H         1 UNK         0.0900 
     69 H69       -82.2263   28.6997  -69.7113 H         1 UNK         0.0900 
     70 H70       -81.2096   27.0319  -70.8087 H         1 UNK         0.2959 
     71 H71       -79.2188   27.5419  -72.8206 H         1 UNK         0.1079 
     72 H72       -80.3207   24.8450  -71.8840 H         1 UNK         0.0837 
     73 H73       -78.8401   25.0969  -72.7767 H         1 UNK         0.0837 
     74 H74       -76.2286   25.9083  -70.1550 H         1 UNK         0.0685 
     75 H75       -76.6053   25.0344  -71.6201 H         1 UNK         0.0685 
     76 H76       -76.3483   26.1989  -73.6804 H         1 UNK         0.1434 
     77 H77       -76.2457   30.4817  -73.8120 H         1 UNK         0.1329 
     78 H78       -76.9695   28.4645  -70.0977 H         1 UNK         0.1335 
     79 H79       -77.5456   30.9306  -70.4545 H         1 UNK         0.0680 
     80 H80       -76.9184   31.7637  -71.8519 H         1 UNK         0.0680 
     81 H81       -73.6362   33.1014  -70.5347 H         1 UNK         0.1032 
     82 H82       -75.1899   33.4881  -71.2160 H         1 UNK         0.1032 
     83 H83       -74.7788   32.0908  -73.1642 H         1 UNK         0.0461 
     84 H84       -71.6156   34.3354  -74.1254 H         1 UNK         0.3453 
     85 H85       -71.4633   32.6929  -73.5500 H         1 UNK         0.3453 
     86 H86       -72.6216   30.9042  -71.6512 H         1 UNK         0.2984 
     87 H87       -71.1080   29.3816  -72.7884 H         1 UNK         0.0554 
     88 H88       -72.1184   27.1963  -72.2064 H         1 UNK         0.0847 
     89 H89       -73.6291   27.6412  -72.9911 H         1 UNK         0.0847 
     90 H90       -73.1168   28.4747  -71.5339 H         1 UNK         0.0847 
     91 H91       -72.1963   27.6712  -74.9197 H         1 UNK         0.3141 
     92 H92       -71.4815   28.3590  -77.3059 H         1 UNK         0.0743 
     93 H93       -68.4245   28.4865  -77.1584 H         1 UNK         0.0784 
     94 H94       -69.3773   28.1890  -78.6135 H         1 UNK         0.0784 
     95 H95       -69.4786   29.7392  -77.7999 H         1 UNK         0.0784 
     96 H96       -69.5164   26.3009  -76.8206 H         1 UNK         0.3213 
     97 H97       -70.4402   24.1191  -77.1487 H         1 UNK         0.0855 
     98 H98       -69.3700   24.5325  -74.9137 H         1 UNK         0.0814 
     99 H99       -70.0856   22.9298  -74.9427 H         1 UNK         0.0814 
    100 H100      -70.9025   24.2449  -74.1002 H         1 UNK         0.0814 
    101 H101      -73.0970   24.0835  -75.9319 H         1 UNK         0.3105 
    102 H102      -74.2224   21.6949  -78.1175 H         1 UNK         0.0547 
    103 H103      -73.4573   19.9550  -76.5013 H         1 UNK         0.0837 
    104 H104      -73.9436   20.9680  -75.1496 H         1 UNK         0.0837 
    105 H105      -75.1555   20.3268  -76.2595 H         1 UNK         0.0837 
    106 H106      -75.4040   22.8684  -75.7569 H         1 UNK         0.3020 
    107 H107      -75.8959   25.2241  -75.7066 H         1 UNK         0.1245 
    108 H108      -76.9357   26.3103  -78.3651 H         1 UNK         0.0781 
    109 H109      -75.4204   26.7979  -77.6533 H         1 UNK         0.0781 
    110 H110      -75.6414   29.2736  -75.7596 H         1 UNK         0.0836 
    111 H111      -75.0174   27.6679  -75.5071 H         1 UNK         0.0836 
    112 H112      -78.2984   24.5736  -77.2758 H         1 UNK         0.3022 
    113 H113      -79.1507   21.9527  -76.2444 H         1 UNK         0.0747 
    114 H114      -80.8028   21.8381  -74.4224 H         1 UNK         0.0793 
    115 H115      -79.1878   21.8291  -73.7368 H         1 UNK         0.0793 
    116 H116      -80.1575   23.2982  -73.6889 H         1 UNK         0.0793 
    117 H117      -80.3258   24.6810  -76.0670 H         1 UNK         0.3047 
    118 H118      -81.6458   24.6878  -78.7797 H         1 UNK         0.0822 
    119 H119      -84.1422   24.4180  -78.7867 H         1 UNK         0.0807 
    120 H120      -84.0077   23.1999  -77.5189 H         1 UNK         0.0807 
    121 H121      -83.3098   22.9069  -79.1037 H         1 UNK         0.0807 
    122 H122      -82.0448   26.3521  -77.4046 H         1 UNK         0.2946 
    123 H123      -82.6541   27.6282  -75.8234 H         1 UNK         0.1144 
    124 H124      -84.4892   28.2303  -74.2878 H         1 UNK         0.0793 
    125 H125      -84.8222   26.5302  -73.9553 H         1 UNK         0.0793 
    126 H126      -85.1096   27.1902  -75.5590 H         1 UNK         0.0793 
    127 H127      -82.5547   27.2256  -73.0819 H         1 UNK         0.2896 
@<TRIPOS>BOND
     1    1    2 1    
     2    1   67 1    
     3    1   68 1    
     4    1   69 1    
     5    2    3 2    
     6    2    4 am   BACKBONE|DICT|INTERRES
     7    4    5 1    
     8    4   70 1    
     9    5    6 1    
    10    5   65 1    
    11    5   71 1    
    12    6    7 1    
    13    6   72 1    
    14    6   73 1    
    15    7    8 1    
    16    8    9 1    
    17    8   74 1    
    18    8   75 1    
    19    9   10 ar   
    20    9   14 ar   
    21   10   11 ar   
    22   10   76 1    
    23   11   12 ar   
    24   11   48 1    
    25   12   13 ar   
    26   12   77 1    
    27   13   14 ar   
    28   13   15 1    
    29   14   78 1    
    30   15   16 1    
    31   15   79 1    
    32   15   80 1    
    33   16   17 1    
    34   17   18 1    
    35   17   81 1    
    36   17   82 1    
    37   18   19 1    
    38   18   22 1    
    39   18   83 1    
    40   19   20 am   BACKBONE|DICT|INTERRES
    41   19   21 2    
    42   20   84 1    
    43   20   85 1    
    44   22   23 am   BACKBONE|DICT|INTERRES
    45   22   86 1    
    46   23   24 2    
    47   23   25 1    
    48   25   26 1    
    49   25   27 1    
    50   25   87 1    
    51   26   88 1    
    52   26   89 1    
    53   26   90 1    
    54   27   28 am   BACKBONE|DICT|INTERRES
    55   27   91 1    
    56   28   29 2    
    57   28   30 1    
    58   30   31 1    
    59   30   32 1    
    60   30   92 1    
    61   31   93 1    
    62   31   94 1    
    63   31   95 1    
    64   32   33 am   BACKBONE|DICT|INTERRES
    65   32   96 1    
    66   33   34 2    
    67   33   35 1    
    68   35   36 1    
    69   35   37 1    
    70   35   97 1    
    71   36   98 1    
    72   36   99 1    
    73   36  100 1    
    74   37   38 am   BACKBONE|DICT|INTERRES
    75   37  101 1    
    76   38   39 2    
    77   38   40 1    
    78   40   41 1    
    79   40   42 1    
    80   40  102 1    
    81   41  103 1    
    82   41  104 1    
    83   41  105 1    
    84   42   43 am   BACKBONE|DICT|INTERRES
    85   42  106 1    
    86   43   44 2    
    87   43   45 1    
    88   45   46 1    
    89   45   49 1    
    90   45  107 1    
    91   46   47 1    
    92   46  108 1    
    93   46  109 1    
    94   47   48 1    
    95   48  110 1    
    96   48  111 1    
    97   49   50 am   BACKBONE|DICT|INTERRES
    98   49  112 1    
    99   50   51 2    
   100   50   52 1    
   101   52   53 1    
   102   52   54 1    
   103   52  113 1    
   104   53  114 1    
   105   53  115 1    
   106   53  116 1    
   107   54   55 am   BACKBONE|DICT|INTERRES
   108   54  117 1    
   109   55   56 2    
   110   55   57 1    
   111   57   58 1    
   112   57   59 1    
   113   57  118 1    
   114   58  119 1    
   115   58  120 1    
   116   58  121 1    
   117   59   60 am   BACKBONE|DICT|INTERRES
   118   59  122 1    
   119   60   61 2    
   120   60   62 1    
   121   62   63 1    
   122   62   64 1    
   123   62  123 1    
   124   63  124 1    
   125   63  125 1    
   126   63  126 1    
   127   64   65 am   BACKBONE|DICT|INTERRES
   128   64  127 1    
   129   65   66 2    
@<TRIPOS>SUBSTRUCTURE
     1 UNK         1 GROUP             0       ****    0 ROOT    
