@<TRIPOS>MOLECULE
3R135
127   129    1
SMALL
USER_CHARGES


@<TRIPOS>ATOM
      1 CA        -79.8660   28.8491  -68.3420 C.3       0 UNK        -0.1998 
      2 C         -80.6943   27.7080  -68.9132 C.2       0 UNK         0.4909 
      3 O         -81.2340   26.9035  -68.1528 O.2       0 UNK        -0.5240 
      4 N         -80.8095   27.6372  -70.2457 N.am      1 UNK        -0.4739 
      5 CA        -81.5701   26.6072  -70.9640 C.3       1 UNK         0.0864 
      6 C6        -82.0987   27.1159  -72.3309 C.3       11 UNK        -0.0881 
      7 S7        -80.7899   27.6951  -73.4634 S.3       11 UNK        -0.2682 
      8 C8        -80.9588   29.5051  -73.3452 C.3       11 UNK         0.0289 
      9 C9        -79.6003   30.1874  -73.4036 C.ar      11 UNK        -0.0687 
     10 C10       -78.9028   30.2675  -74.6132 C.ar      11 UNK        -0.0823 
     11 C11       -77.6513   30.8901  -74.6746 C.ar      11 UNK        -0.0830 
     12 C12       -77.1033   31.4377  -73.5091 C.ar      11 UNK        -0.1021 
     13 C13       -77.7815   31.3477  -72.2902 C.ar      11 UNK        -0.0753 
     14 C14       -79.0360   30.7334  -72.2464 C.ar      11 UNK        -0.0933 
     15 C15       -77.1615   31.9201  -71.0225 C.3       11 UNK         0.0166 
     16 S16       -76.5981   30.6217  -69.8715 S.3       11 UNK        -0.2615 
     17 C17       -75.3097   29.7502  -70.8452 C.3       11 UNK        -0.0865 
     18 CA        -75.5688   28.2797  -71.3266 C.3       10 UNK         0.0862 
     19 C         -77.0467   27.7878  -71.2581 C.2       10 UNK         0.5551 
     20 N         -77.7210   27.5629  -72.3741 N.am      10 UNK        -0.7319 
     21 O         -77.5827   27.5580  -70.1785 O.2       10 UNK        -0.5018 
     22 N         -74.9278   28.0584  -72.6344 N.am      10 UNK        -0.4509 
     23 C         -74.5356   26.8766  -73.1287 C.2       10 UNK         0.4899 
     24 O         -74.6611   25.8056  -72.5322 O.2       10 UNK        -0.4839 
     25 CA        -73.9115   26.9414  -74.5377 C.3       9 UNK         0.0222 
     26 CB        -72.7222   27.9305  -74.5930 C.3       9 UNK        -0.1966 
     27 N         -73.5244   25.6428  -75.1100 N.am      9 UNK        -0.4218 
     28 C         -72.5437   24.8267  -74.6896 C.2       9 UNK         0.5020 
     29 O         -71.8249   25.0568  -73.7151 O.2       9 UNK        -0.5274 
     30 CA        -72.2802   23.5344  -75.4897 C.3       8 UNK         0.0270 
     31 CB        -72.7326   22.2927  -74.7019 C.3       8 UNK        -0.1976 
     32 N         -72.8685   23.4949  -76.8332 N.am      8 UNK        -0.4313 
     33 C         -72.4148   24.1800  -77.8924 C.2       8 UNK         0.5041 
     34 O         -71.4896   24.9915  -77.8295 O.2       8 UNK        -0.5577 
     35 CA        -73.0739   23.9034  -79.2568 C.3       7 UNK         0.0284 
     36 CB        -74.2618   22.9182  -79.2035 C.3       7 UNK        -0.1958 
     37 N         -73.5381   25.1693  -79.8140 N.am      7 UNK        -0.4454 
     38 C         -73.1566   25.7155  -80.9769 C.2       7 UNK         0.5089 
     39 O         -72.3617   25.1847  -81.7538 O.2       7 UNK        -0.5125 
     40 CA        -73.7775   27.0775  -81.3612 C.3       6 UNK         0.0408 
     41 CB        -74.7933   26.8994  -82.5017 C.3       6 UNK        -0.1791 
     42 N         -74.4433   27.7356  -80.2341 N.am      6 UNK        -0.4762 
     43 C         -73.8084   28.3655  -79.2351 C.2       6 UNK         0.5007 
     44 O         -72.6127   28.6564  -79.2696 O.2       6 UNK        -0.5032 
     45 CA        -74.6177   28.6505  -77.9523 C.3       5 UNK         0.0783 
     46 C46       -74.7052   30.1558  -77.6076 C.3       11 UNK        -0.0857 
     47 S47       -75.1927   30.3720  -75.8621 S.3       11 UNK        -0.2512 
     48 C48       -76.9043   30.9783  -76.0016 C.3       11 UNK         0.0225 
     49 N         -75.9392   28.0048  -77.9426 N.am      5 UNK        -0.4615 
     50 C         -76.1373   26.7012  -77.7236 C.2       4 UNK         0.5053 
     51 O         -75.2217   25.8911  -77.5624 O.2       4 UNK        -0.5105 
     52 CA        -77.5931   26.2114  -77.7395 C.3       4 UNK         0.0263 
     53 CB        -77.9619   25.7023  -79.1423 C.3       4 UNK        -0.1981 
     54 N         -77.8057   25.1387  -76.7666 N.am      4 UNK        -0.4224 
     55 C         -77.6709   25.2905  -75.4433 C.2       3 UNK         0.4895 
     56 O         -77.4317   26.3697  -74.9001 O.2       3 UNK        -0.5091 
     57 CA        -77.7660   24.0138  -74.6033 C.3       3 UNK         0.0250 
     58 CB        -76.4408   23.2316  -74.6899 C.3       3 UNK        -0.1996 
     59 N         -78.0638   24.3506  -73.2112 N.am      3 UNK        -0.4254 
     60 C         -78.4685   23.4757  -72.2812 C.2       2 UNK         0.5004 
     61 O         -78.6693   22.2810  -72.5064 O.2       2 UNK        -0.5226 
     62 CA        -78.6904   24.0112  -70.8567 C.3       2 UNK         0.0269 
     63 CB        -77.3473   24.2398  -70.1442 C.3       2 UNK        -0.1926 
     64 N         -79.5040   25.2309  -70.8129 N.am      2 UNK        -0.4687 
     65 C         -80.8188   25.2614  -71.0905 C.2       1 UNK         0.5165 
     66 O         -81.4586   24.2615  -71.4212 O.2       1 UNK        -0.5079 
     67 H67       -79.0198   28.4516  -67.7821 H         1 UNK         0.0900 
     68 H68       -80.4699   29.4560  -67.6683 H         1 UNK         0.0900 
     69 H69       -79.4723   29.4969  -69.1245 H         1 UNK         0.0900 
     70 H70       -80.3220   28.3052  -70.8247 H         1 UNK         0.2959 
     71 H71       -82.4539   26.3791  -70.3631 H         1 UNK         0.1079 
     72 H72       -82.6607   26.3290  -72.8378 H         1 UNK         0.0837 
     73 H73       -82.8217   27.9164  -72.1687 H         1 UNK         0.0837 
     74 H74       -81.4712   29.7785  -72.4218 H         1 UNK         0.0685 
     75 H75       -81.5885   29.8606  -74.1620 H         1 UNK         0.0685 
     76 H76       -79.3379   29.8359  -75.5041 H         1 UNK         0.1434 
     77 H77       -76.1383   31.9239  -73.5511 H         1 UNK         0.1329 
     78 H78       -79.5632   30.6712  -71.3051 H         1 UNK         0.1335 
     79 H79       -76.3223   32.5754  -71.2613 H         1 UNK         0.0680 
     80 H80       -77.8985   32.5433  -70.5141 H         1 UNK         0.0680 
     81 H81       -75.0770   30.3855  -71.7003 H         1 UNK         0.1032 
     82 H82       -74.3958   29.7632  -70.2496 H         1 UNK         0.1032 
     83 H83       -75.0461   27.6343  -70.6177 H         1 UNK         0.0461 
     84 H84       -78.6976   27.3255  -72.3446 H         1 UNK         0.3453 
     85 H85       -77.2805   27.6617  -73.2797 H         1 UNK         0.3453 
     86 H86       -74.8413   28.8731  -73.2238 H         1 UNK         0.2984 
     87 H87       -74.7020   27.3202  -75.1837 H         1 UNK         0.0554 
     88 H88       -72.2444   27.9280  -75.5726 H         1 UNK         0.0847 
     89 H89       -71.9585   27.6857  -73.8543 H         1 UNK         0.0847 
     90 H90       -73.0366   28.9547  -74.3948 H         1 UNK         0.0847 
     91 H91       -74.0554   25.3673  -75.9297 H         1 UNK         0.3141 
     92 H92       -71.1964   23.4660  -75.6079 H         1 UNK         0.0743 
     93 H93       -72.2990   22.2850  -73.7008 H         1 UNK         0.0784 
     94 H94       -73.8143   22.2531  -74.5858 H         1 UNK         0.0784 
     95 H95       -72.4149   21.3737  -75.1949 H         1 UNK         0.0784 
     96 H96       -73.6394   22.8584  -76.9731 H         1 UNK         0.3213 
     97 H97       -72.2994   23.4688  -79.8921 H         1 UNK         0.0855 
     98 H98       -75.0702   23.2827  -78.5678 H         1 UNK         0.0814 
     99 H99       -73.9533   21.9387  -78.8358 H         1 UNK         0.0814 
    100 H100      -74.6782   22.7615  -80.1988 H         1 UNK         0.0814 
    101 H101      -74.1504   25.6954  -79.1995 H         1 UNK         0.3105 
    102 H102      -72.9705   27.7200  -81.7197 H         1 UNK         0.0547 
    103 H103      -75.6238   26.2562  -82.2080 H         1 UNK         0.0837 
    104 H104      -75.2049   27.8571  -82.8209 H         1 UNK         0.0837 
    105 H105      -74.3235   26.4446  -83.3749 H         1 UNK         0.0837 
    106 H106      -75.4325   27.5635  -80.1300 H         1 UNK         0.3020 
    107 H107      -74.0179   28.1806  -77.1728 H         1 UNK         0.1245 
    108 H108      -75.3970   30.6768  -78.2717 H         1 UNK         0.0781 
    109 H109      -73.7355   30.6418  -77.7325 H         1 UNK         0.0781 
    110 H110      -76.8936   32.0146  -76.3414 H         1 UNK         0.0836 
    111 H111      -77.4247   30.4024  -76.7675 H         1 UNK         0.0836 
    112 H112      -76.7353   28.6091  -78.0818 H         1 UNK         0.3022 
    113 H113      -78.2518   27.0417  -77.4754 H         1 UNK         0.0747 
    114 H114      -77.8571   26.4917  -79.8877 H         1 UNK         0.0793 
    115 H115      -78.9966   25.3610  -79.1812 H         1 UNK         0.0793 
    116 H116      -77.3233   24.8736  -79.4527 H         1 UNK         0.0793 
    117 H117      -77.9653   24.2147  -77.1397 H         1 UNK         0.3047 
    118 H118      -78.5814   23.4043  -74.9984 H         1 UNK         0.0822 
    119 H119      -76.1600   23.0325  -75.7247 H         1 UNK         0.0807 
    120 H120      -76.5075   22.2678  -74.1857 H         1 UNK         0.0807 
    121 H121      -75.6264   23.7924  -74.2303 H         1 UNK         0.0807 
    122 H122      -77.9215   25.3252  -72.9708 H         1 UNK         0.2946 
    123 H123      -79.2289   23.2398  -70.3010 H         1 UNK         0.1144 
    124 H124      -76.7129   24.9419  -70.6852 H         1 UNK         0.0793 
    125 H125      -76.7907   23.3056  -70.0607 H         1 UNK         0.0793 
    126 H126      -77.4905   24.6247  -69.1344 H         1 UNK         0.0793 
    127 H127      -79.0381   26.0835  -70.5196 H         1 UNK         0.2896 
@<TRIPOS>BOND
     1    1    2 1    
     2    1   67 1    
     3    1   68 1    
     4    1   69 1    
     5    2    3 2    
     6    2    4 am   BACKBONE|DICT|INTERRES
     7    4    5 1    
     8    4   70 1    
     9    5    6 1    
    10    5   65 1    
    11    5   71 1    
    12    6    7 1    
    13    6   72 1    
    14    6   73 1    
    15    7    8 1    
    16    8    9 1    
    17    8   74 1    
    18    8   75 1    
    19    9   10 ar   
    20    9   14 ar   
    21   10   11 ar   
    22   10   76 1    
    23   11   12 ar   
    24   11   48 1    
    25   12   13 ar   
    26   12   77 1    
    27   13   14 ar   
    28   13   15 1    
    29   14   78 1    
    30   15   16 1    
    31   15   79 1    
    32   15   80 1    
    33   16   17 1    
    34   17   18 1    
    35   17   81 1    
    36   17   82 1    
    37   18   19 1    
    38   18   22 1    
    39   18   83 1    
    40   19   20 am   BACKBONE|DICT|INTERRES
    41   19   21 2    
    42   20   84 1    
    43   20   85 1    
    44   22   23 am   BACKBONE|DICT|INTERRES
    45   22   86 1    
    46   23   24 2    
    47   23   25 1    
    48   25   26 1    
    49   25   27 1    
    50   25   87 1    
    51   26   88 1    
    52   26   89 1    
    53   26   90 1    
    54   27   28 am   BACKBONE|DICT|INTERRES
    55   27   91 1    
    56   28   29 2    
    57   28   30 1    
    58   30   31 1    
    59   30   32 1    
    60   30   92 1    
    61   31   93 1    
    62   31   94 1    
    63   31   95 1    
    64   32   33 am   BACKBONE|DICT|INTERRES
    65   32   96 1    
    66   33   34 2    
    67   33   35 1    
    68   35   36 1    
    69   35   37 1    
    70   35   97 1    
    71   36   98 1    
    72   36   99 1    
    73   36  100 1    
    74   37   38 am   BACKBONE|DICT|INTERRES
    75   37  101 1    
    76   38   39 2    
    77   38   40 1    
    78   40   41 1    
    79   40   42 1    
    80   40  102 1    
    81   41  103 1    
    82   41  104 1    
    83   41  105 1    
    84   42   43 am   BACKBONE|DICT|INTERRES
    85   42  106 1    
    86   43   44 2    
    87   43   45 1    
    88   45   46 1    
    89   45   49 1    
    90   45  107 1    
    91   46   47 1    
    92   46  108 1    
    93   46  109 1    
    94   47   48 1    
    95   48  110 1    
    96   48  111 1    
    97   49   50 am   BACKBONE|DICT|INTERRES
    98   49  112 1    
    99   50   51 2    
   100   50   52 1    
   101   52   53 1    
   102   52   54 1    
   103   52  113 1    
   104   53  114 1    
   105   53  115 1    
   106   53  116 1    
   107   54   55 am   BACKBONE|DICT|INTERRES
   108   54  117 1    
   109   55   56 2    
   110   55   57 1    
   111   57   58 1    
   112   57   59 1    
   113   57  118 1    
   114   58  119 1    
   115   58  120 1    
   116   58  121 1    
   117   59   60 am   BACKBONE|DICT|INTERRES
   118   59  122 1    
   119   60   61 2    
   120   60   62 1    
   121   62   63 1    
   122   62   64 1    
   123   62  123 1    
   124   63  124 1    
   125   63  125 1    
   126   63  126 1    
   127   64   65 am   BACKBONE|DICT|INTERRES
   128   64  127 1    
   129   65   66 2    
@<TRIPOS>SUBSTRUCTURE
     1 UNK         1 GROUP             0       ****    0 ROOT    
