@<TRIPOS>MOLECULE
3R135
127   129    1
SMALL
USER_CHARGES


@<TRIPOS>ATOM
      1 CA        -76.4378   28.6469  -70.1164 C.3       0 UNK        -0.1998 
      2 C         -77.6903   28.0423  -69.4997 C.2       0 UNK         0.4909 
      3 O         -77.7359   27.8264  -68.2885 O.2       0 UNK        -0.5240 
      4 N         -78.7060   27.7658  -70.3262 N.am      1 UNK        -0.4739 
      5 CA        -79.9603   27.1047  -69.9410 C.3       1 UNK         0.0864 
      6 C6        -81.1569   27.5177  -70.8430 C.3       11 UNK        -0.0881 
      7 S7        -80.7554   27.6355  -72.6218 S.3       11 UNK        -0.2682 
      8 C8        -80.7251   29.4432  -72.8334 C.3       11 UNK         0.0289 
      9 C9        -79.8431   29.8418  -74.0032 C.ar      11 UNK        -0.0687 
     10 C10       -80.3835   30.0097  -75.2804 C.ar      11 UNK        -0.0823 
     11 C11       -79.5645   30.3751  -76.3538 C.ar      11 UNK        -0.0830 
     12 C12       -78.1956   30.5721  -76.1425 C.ar      11 UNK        -0.1021 
     13 C13       -77.6452   30.3955  -74.8689 C.ar      11 UNK        -0.0753 
     14 C14       -78.4763   30.0432  -73.8026 C.ar      11 UNK        -0.0933 
     15 C15       -76.1498   30.5576  -74.6365 C.3       11 UNK         0.0166 
     16 S16       -75.1701   29.2551  -75.4507 S.3       11 UNK        -0.2615 
     17 C17       -75.9290   27.7105  -74.8277 C.3       11 UNK        -0.0865 
     18 CA        -75.1747   27.0634  -73.6407 C.3       10 UNK         0.0862 
     19 C         -76.0002   25.8665  -73.0810 C.2       10 UNK         0.5551 
     20 N         -75.6044   24.6217  -73.3185 N.am      10 UNK        -0.7319 
     21 O         -77.0085   26.0757  -72.4104 O.2       10 UNK        -0.5018 
     22 N         -73.7838   26.7463  -74.0026 N.am      10 UNK        -0.4509 
     23 C         -72.8299   26.3459  -73.1522 C.2       10 UNK         0.4899 
     24 O         -72.9929   26.2220  -71.9381 O.2       10 UNK        -0.4839 
     25 CA        -71.4519   26.0460  -73.7639 C.3       9 UNK         0.0222 
     26 CB        -71.4733   24.7311  -74.5617 C.3       9 UNK        -0.1966 
     27 N         -70.9856   27.1392  -74.6182 N.am      9 UNK        -0.4218 
     28 C         -70.5487   28.3238  -74.1708 C.2       9 UNK         0.5020 
     29 O         -70.4244   28.5943  -72.9754 O.2       9 UNK        -0.5274 
     30 CA        -70.1979   29.4066  -75.2096 C.3       8 UNK         0.0270 
     31 CB        -68.7117   29.3356  -75.6142 C.3       8 UNK        -0.1976 
     32 N         -71.0873   29.4420  -76.3801 N.am      8 UNK        -0.4313 
     33 C         -71.2106   28.5482  -77.3698 C.2       8 UNK         0.5041 
     34 O         -70.5182   27.5334  -77.4812 O.2       8 UNK        -0.5577 
     35 CA        -72.3162   28.8414  -78.3987 C.3       7 UNK         0.0284 
     36 CB        -71.7192   29.5221  -79.6411 C.3       7 UNK        -0.1958 
     37 N         -73.0859   27.6649  -78.8197 N.am      7 UNK        -0.4454 
     38 C         -73.6305   26.7357  -78.0219 C.2       7 UNK         0.5089 
     39 O         -73.4702   26.6718  -76.8021 O.2       7 UNK        -0.5125 
     40 CA        -74.5814   25.7376  -78.6975 C.3       6 UNK         0.0408 
     41 CB        -74.3324   24.3020  -78.2040 C.3       6 UNK        -0.1791 
     42 N         -75.9620   26.1103  -78.3965 N.am      6 UNK        -0.4762 
     43 C         -76.6217   27.1635  -78.8945 C.2       6 UNK         0.5007 
     44 O         -76.1568   27.8715  -79.7902 O.2       6 UNK        -0.5032 
     45 CA        -78.0279   27.4756  -78.3109 C.3       5 UNK         0.0783 
     46 C46       -78.7677   28.5441  -79.1633 C.3       11 UNK        -0.0857 
     47 S47       -80.4418   28.9562  -78.5610 S.3       11 UNK        -0.2512 
     48 C48       -80.1699   30.5564  -77.7367 C.3       11 UNK         0.0225 
     49 N         -78.8630   26.2822  -78.0947 N.am      5 UNK        -0.4615 
     50 C         -78.6834   25.3357  -77.1655 C.2       4 UNK         0.5053 
     51 O         -77.7109   25.3075  -76.4086 O.2       4 UNK        -0.5105 
     52 CA        -79.7396   24.2146  -77.1125 C.3       4 UNK         0.0263 
     53 CB        -79.7455   23.4014  -78.4198 C.3       4 UNK        -0.1981 
     54 N         -79.4889   23.2977  -75.9984 N.am      4 UNK        -0.4224 
     55 C         -79.6886   23.5823  -74.7051 C.2       3 UNK         0.4895 
     56 O         -80.2854   24.5848  -74.3092 O.2       3 UNK        -0.5091 
     57 CA        -79.1262   22.5791  -73.6853 C.3       3 UNK         0.0250 
     58 CB        -77.8824   21.8143  -74.1990 C.3       3 UNK        -0.1996 
     59 N         -78.8122   23.2821  -72.4415 N.am      3 UNK        -0.4254 
     60 C         -78.6997   22.7046  -71.2396 C.2       2 UNK         0.5004 
     61 O         -78.8655   21.4997  -71.0435 O.2       2 UNK        -0.5226 
     62 CA        -78.3257   23.6013  -70.0510 C.3       2 UNK         0.0269 
     63 CB        -76.8176   23.5111  -69.7634 C.3       2 UNK        -0.1926 
     64 N         -78.6832   25.0063  -70.2566 N.am      2 UNK        -0.4687 
     65 C         -79.8135   25.5715  -69.8094 C.2       1 UNK         0.5165 
     66 O         -80.7138   24.9327  -69.2611 O.2       1 UNK        -0.5079 
     67 H67       -76.1636   29.5626  -69.5933 H         1 UNK         0.0900 
     68 H68       -76.5798   28.8881  -71.1690 H         1 UNK         0.0900 
     69 H69       -75.6071   27.9456  -70.0392 H         1 UNK         0.0900 
     70 H70       -78.5999   27.9123  -71.3211 H         1 UNK         0.2959 
     71 H71       -80.2083   27.4408  -68.9314 H         1 UNK         0.1079 
     72 H72       -81.9992   26.8331  -70.7245 H         1 UNK         0.0837 
     73 H73       -81.5385   28.4818  -70.5039 H         1 UNK         0.0837 
     74 H74       -81.7434   29.8080  -72.9764 H         1 UNK         0.0685 
     75 H75       -80.3514   29.9199  -71.9256 H         1 UNK         0.0685 
     76 H76       -81.4409   29.8484  -75.4415 H         1 UNK         0.1434 
     77 H77       -77.5530   30.8443  -76.9689 H         1 UNK         0.1329 
     78 H78       -78.0571   29.9075  -72.8160 H         1 UNK         0.1335 
     79 H79       -75.8300   31.5292  -75.0152 H         1 UNK         0.0680 
     80 H80       -75.9185   30.5529  -73.5701 H         1 UNK         0.0680 
     81 H81       -75.9454   27.0093  -75.6611 H         1 UNK         0.1032 
     82 H82       -76.9766   27.8761  -74.5769 H         1 UNK         0.1032 
     83 H83       -75.1276   27.8009  -72.8383 H         1 UNK         0.0461 
     84 H84       -74.7796   24.4524  -73.8697 H         1 UNK         0.3453 
     85 H85       -76.1404   23.8527  -72.9558 H         1 UNK         0.3453 
     86 H86       -73.5692   26.8014  -74.9975 H         1 UNK         0.2984 
     87 H87       -70.7403   25.9262  -72.9441 H         1 UNK         0.0554 
     88 H88       -70.4787   24.4753  -74.9274 H         1 UNK         0.0847 
     89 H89       -72.1400   24.7848  -75.4228 H         1 UNK         0.0847 
     90 H90       -71.8113   23.9024  -73.9381 H         1 UNK         0.0847 
     91 H91       -71.0417   27.0088  -75.6249 H         1 UNK         0.3141 
     92 H92       -70.3477   30.3654  -74.7104 H         1 UNK         0.0743 
     93 H93       -68.0678   29.4414  -74.7401 H         1 UNK         0.0784 
     94 H94       -68.4503   30.1345  -76.3081 H         1 UNK         0.0784 
     95 H95       -68.4591   28.3852  -76.0850 H         1 UNK         0.0784 
     96 H96       -71.7338   30.2198  -76.3828 H         1 UNK         0.3213 
     97 H97       -73.0345   29.5266  -77.9437 H         1 UNK         0.0855 
     98 H98       -71.1610   30.4187  -79.3677 H         1 UNK         0.0814 
     99 H99       -72.4968   29.8289  -80.3411 H         1 UNK         0.0814 
    100 H100      -71.0319   28.8597  -80.1692 H         1 UNK         0.0814 
    101 H101      -73.3165   27.6212  -79.8017 H         1 UNK         0.3105 
    102 H102      -74.4306   25.7618  -79.7787 H         1 UNK         0.0547 
    103 H103      -74.5147   24.2034  -77.1328 H         1 UNK         0.0837 
    104 H104      -73.3004   24.0009  -78.3879 H         1 UNK         0.0837 
    105 H105      -74.9764   23.5891  -78.7187 H         1 UNK         0.0837 
    106 H106      -76.4106   25.6163  -77.6274 H         1 UNK         0.3020 
    107 H107      -77.8460   27.9163  -77.3280 H         1 UNK         0.1245 
    108 H108      -78.8730   28.1945  -80.1922 H         1 UNK         0.0781 
    109 H109      -78.1784   29.4612  -79.2206 H         1 UNK         0.0781 
    110 H110      -81.1289   31.0686  -77.6450 H         1 UNK         0.0836 
    111 H111      -79.5456   31.2002  -78.3581 H         1 UNK         0.0836 
    112 H112      -79.6779   26.2217  -78.6875 H         1 UNK         0.3022 
    113 H113      -80.7198   24.6757  -76.9736 H         1 UNK         0.0747 
    114 H114      -80.4744   22.5916  -78.3790 H         1 UNK         0.0793 
    115 H115      -80.0101   24.0229  -79.2759 H         1 UNK         0.0793 
    116 H116      -78.7683   22.9621  -78.6261 H         1 UNK         0.0793 
    117 H117      -78.9633   22.4653  -76.2200 H         1 UNK         0.3047 
    118 H118      -79.9226   21.8598  -73.4828 H         1 UNK         0.0822 
    119 H119      -77.4436   21.1887  -73.4218 H         1 UNK         0.0807 
    120 H120      -77.1074   22.4957  -74.5523 H         1 UNK         0.0807 
    121 H121      -78.1371   21.1466  -75.0225 H         1 UNK         0.0807 
    122 H122      -78.7269   24.2894  -72.5194 H         1 UNK         0.2946 
    123 H123      -78.8537   23.2109  -69.1777 H         1 UNK         0.1144 
    124 H124      -76.5106   22.4770  -69.6007 H         1 UNK         0.0793 
    125 H125      -76.5537   24.0712  -68.8661 H         1 UNK         0.0793 
    126 H126      -76.2215   23.9034  -70.5871 H         1 UNK         0.0793 
    127 H127      -78.0186   25.5810  -70.7665 H         1 UNK         0.2896 
@<TRIPOS>BOND
     1    1    2 1    
     2    1   67 1    
     3    1   68 1    
     4    1   69 1    
     5    2    3 2    
     6    2    4 am   BACKBONE|DICT|INTERRES
     7    4    5 1    
     8    4   70 1    
     9    5    6 1    
    10    5   65 1    
    11    5   71 1    
    12    6    7 1    
    13    6   72 1    
    14    6   73 1    
    15    7    8 1    
    16    8    9 1    
    17    8   74 1    
    18    8   75 1    
    19    9   10 ar   
    20    9   14 ar   
    21   10   11 ar   
    22   10   76 1    
    23   11   12 ar   
    24   11   48 1    
    25   12   13 ar   
    26   12   77 1    
    27   13   14 ar   
    28   13   15 1    
    29   14   78 1    
    30   15   16 1    
    31   15   79 1    
    32   15   80 1    
    33   16   17 1    
    34   17   18 1    
    35   17   81 1    
    36   17   82 1    
    37   18   19 1    
    38   18   22 1    
    39   18   83 1    
    40   19   20 am   BACKBONE|DICT|INTERRES
    41   19   21 2    
    42   20   84 1    
    43   20   85 1    
    44   22   23 am   BACKBONE|DICT|INTERRES
    45   22   86 1    
    46   23   24 2    
    47   23   25 1    
    48   25   26 1    
    49   25   27 1    
    50   25   87 1    
    51   26   88 1    
    52   26   89 1    
    53   26   90 1    
    54   27   28 am   BACKBONE|DICT|INTERRES
    55   27   91 1    
    56   28   29 2    
    57   28   30 1    
    58   30   31 1    
    59   30   32 1    
    60   30   92 1    
    61   31   93 1    
    62   31   94 1    
    63   31   95 1    
    64   32   33 am   BACKBONE|DICT|INTERRES
    65   32   96 1    
    66   33   34 2    
    67   33   35 1    
    68   35   36 1    
    69   35   37 1    
    70   35   97 1    
    71   36   98 1    
    72   36   99 1    
    73   36  100 1    
    74   37   38 am   BACKBONE|DICT|INTERRES
    75   37  101 1    
    76   38   39 2    
    77   38   40 1    
    78   40   41 1    
    79   40   42 1    
    80   40  102 1    
    81   41  103 1    
    82   41  104 1    
    83   41  105 1    
    84   42   43 am   BACKBONE|DICT|INTERRES
    85   42  106 1    
    86   43   44 2    
    87   43   45 1    
    88   45   46 1    
    89   45   49 1    
    90   45  107 1    
    91   46   47 1    
    92   46  108 1    
    93   46  109 1    
    94   47   48 1    
    95   48  110 1    
    96   48  111 1    
    97   49   50 am   BACKBONE|DICT|INTERRES
    98   49  112 1    
    99   50   51 2    
   100   50   52 1    
   101   52   53 1    
   102   52   54 1    
   103   52  113 1    
   104   53  114 1    
   105   53  115 1    
   106   53  116 1    
   107   54   55 am   BACKBONE|DICT|INTERRES
   108   54  117 1    
   109   55   56 2    
   110   55   57 1    
   111   57   58 1    
   112   57   59 1    
   113   57  118 1    
   114   58  119 1    
   115   58  120 1    
   116   58  121 1    
   117   59   60 am   BACKBONE|DICT|INTERRES
   118   59  122 1    
   119   60   61 2    
   120   60   62 1    
   121   62   63 1    
   122   62   64 1    
   123   62  123 1    
   124   63  124 1    
   125   63  125 1    
   126   63  126 1    
   127   64   65 am   BACKBONE|DICT|INTERRES
   128   64  127 1    
   129   65   66 2    
@<TRIPOS>SUBSTRUCTURE
     1 UNK         1 GROUP             0       ****    0 ROOT    
