@<TRIPOS>MOLECULE
3R135
127   129    1
SMALL
USER_CHARGES


@<TRIPOS>ATOM
      1 CA        -83.6227   23.2011  -72.8378 C.3       0 UNK        -0.1998 
      2 C         -82.9805   24.5185  -73.2431 C.2       0 UNK         0.4909 
      3 O         -83.0868   24.9226  -74.4019 O.2       0 UNK        -0.5240 
      4 N         -82.3213   25.1969  -72.2941 N.am      1 UNK        -0.4739 
      5 CA        -81.6832   26.5011  -72.5005 C.3       1 UNK         0.0864 
      6 C6        -81.2893   27.1696  -71.1601 C.3       11 UNK        -0.0881 
      7 S7        -81.3084   28.9919  -71.2834 S.3       11 UNK        -0.2682 
      8 C8        -79.7331   29.4579  -70.4996 C.3       11 UNK         0.0289 
      9 C9        -78.5304   29.1646  -71.3854 C.ar      11 UNK        -0.0687 
     10 C10       -77.7229   28.0540  -71.1305 C.ar      11 UNK        -0.0823 
     11 C11       -76.5973   27.7998  -71.9170 C.ar      11 UNK        -0.0830 
     12 C12       -76.2872   28.6613  -72.9732 C.ar      11 UNK        -0.1021 
     13 C13       -77.0682   29.7972  -73.2261 C.ar      11 UNK        -0.0753 
     14 C14       -78.1962   30.0308  -72.4313 C.ar      11 UNK        -0.0933 
     15 C15       -76.7365   30.7912  -74.3439 C.3       11 UNK         0.0166 
     16 S16       -74.9761   30.9064  -74.8120 S.3       11 UNK        -0.2615 
     17 C17       -74.2147   31.4295  -73.2426 C.3       11 UNK        -0.0865 
     18 CA        -72.7190   31.8065  -73.3996 C.3       10 UNK         0.0862 
     19 C         -72.1984   32.4729  -72.0903 C.2       10 UNK         0.5551 
     20 N         -71.3039   31.8481  -71.3336 N.am      10 UNK        -0.7319 
     21 O         -72.6150   33.5803  -71.7591 O.2       10 UNK        -0.5018 
     22 N         -71.9007   30.6747  -73.8849 N.am      10 UNK        -0.4509 
     23 C         -70.6574   30.8159  -74.3734 C.2       10 UNK         0.4899 
     24 O         -70.1267   31.9113  -74.5614 O.2       10 UNK        -0.4839 
     25 CA        -69.8377   29.5536  -74.6857 C.3       9 UNK         0.0222 
     26 CB        -68.8898   29.2345  -73.5120 C.3       9 UNK        -0.1966 
     27 N         -70.6648   28.3903  -75.0061 N.am      9 UNK        -0.4218 
     28 C         -70.2492   27.2781  -75.6211 C.2       9 UNK         0.5020 
     29 O         -69.0934   27.0996  -76.0088 O.2       9 UNK        -0.5274 
     30 CA        -71.2931   26.1682  -75.8490 C.3       8 UNK         0.0270 
     31 CB        -71.5555   25.3826  -74.5482 C.3       8 UNK        -0.1976 
     32 N         -72.5487   26.6215  -76.4643 N.am      8 UNK        -0.4313 
     33 C         -73.4692   27.4658  -75.9839 C.2       8 UNK         0.5041 
     34 O         -73.3692   28.0146  -74.8859 O.2       8 UNK        -0.5577 
     35 CA        -74.6976   27.7568  -76.8695 C.3       7 UNK         0.0284 
     36 CB        -74.3497   28.7501  -77.9935 C.3       7 UNK        -0.1958 
     37 N         -75.3655   26.5564  -77.3923 N.am      7 UNK        -0.4454 
     38 C         -74.8945   25.6038  -78.2127 C.2       7 UNK         0.5089 
     39 O         -73.8065   25.6621  -78.7895 O.2       7 UNK        -0.5125 
     40 CA        -75.7691   24.3376  -78.3143 C.3       6 UNK         0.0408 
     41 CB        -75.0792   23.1678  -79.0462 C.3       6 UNK        -0.1791 
     42 N         -76.2442   23.9422  -76.9812 N.am      6 UNK        -0.4762 
     43 C         -75.4888   23.6053  -75.9222 C.2       6 UNK         0.5007 
     44 O         -74.2926   23.3241  -75.9885 O.2       6 UNK        -0.5032 
     45 CA        -76.1683   23.6550  -74.5394 C.3       5 UNK         0.0783 
     46 C46       -75.8996   25.0280  -73.8768 C.3       11 UNK        -0.0857 
     47 S47       -76.4021   25.0408  -72.1287 S.3       11 UNK        -0.2512 
     48 C48       -75.6925   26.6230  -71.5828 C.3       11 UNK         0.0225 
     49 N         -77.6027   23.3611  -74.6092 N.am      5 UNK        -0.4615 
     50 C         -78.1131   22.1510  -74.8689 C.2       4 UNK         0.5053 
     51 O         -77.4335   21.1352  -75.0170 O.2       4 UNK        -0.5105 
     52 CA        -79.6391   22.0664  -75.0099 C.3       4 UNK         0.0263 
     53 CB        -80.3043   21.9013  -73.6354 C.3       4 UNK        -0.1981 
     54 N         -80.1855   23.2364  -75.7043 N.am      4 UNK        -0.4224 
     55 C         -80.0776   23.4321  -77.0275 C.2       3 UNK         0.4895 
     56 O         -79.5806   22.6136  -77.8010 O.2       3 UNK        -0.5091 
     57 CA        -80.5896   24.7672  -77.5922 C.3       3 UNK         0.0250 
     58 CB        -82.0686   24.6511  -77.9935 C.3       3 UNK        -0.1996 
     59 N         -80.4231   25.8889  -76.6676 N.am      3 UNK        -0.4254 
     60 C         -79.2462   26.4366  -76.3310 C.2       2 UNK         0.5004 
     61 O         -78.1589   26.0630  -76.7687 O.2       2 UNK        -0.5226 
     62 CA        -79.2827   27.5854  -75.3123 C.3       2 UNK         0.0269 
     63 CB        -79.4659   28.9226  -76.0456 C.3       2 UNK        -0.1926 
     64 N         -80.3330   27.4515  -74.3007 N.am      2 UNK        -0.4687 
     65 C         -80.4909   26.4089  -73.4747 C.2       1 UNK         0.5165 
     66 O         -79.7661   25.4092  -73.4794 O.2       1 UNK        -0.5079 
     67 H67       -84.6579   23.3660  -72.5410 H         1 UNK         0.0900 
     68 H68       -83.6193   22.5023  -73.6738 H         1 UNK         0.0900 
     69 H69       -83.0948   22.7371  -72.0048 H         1 UNK         0.0900 
     70 H70       -82.2336   24.8017  -71.3689 H         1 UNK         0.2959 
     71 H71       -82.4475   27.1215  -72.9754 H         1 UNK         0.1079 
     72 H72       -80.3245   26.8068  -70.8015 H         1 UNK         0.0837 
     73 H73       -82.0093   26.9080  -70.3829 H         1 UNK         0.0837 
     74 H74       -79.6418   28.9505  -69.5378 H         1 UNK         0.0685 
     75 H75       -79.7592   30.5252  -70.2750 H         1 UNK         0.0685 
     76 H76       -77.9601   27.3904  -70.3102 H         1 UNK         0.1434 
     77 H77       -75.4177   28.4581  -73.5783 H         1 UNK         0.1329 
     78 H78       -78.8154   30.8975  -72.6189 H         1 UNK         0.1335 
     79 H79       -77.2942   30.5150  -75.2365 H         1 UNK         0.0680 
     80 H80       -77.0771   31.7897  -74.0653 H         1 UNK         0.0680 
     81 H81       -74.3275   30.6336  -72.5048 H         1 UNK         0.1032 
     82 H82       -74.7882   32.2787  -72.8650 H         1 UNK         0.1032 
     83 H83       -72.6664   32.5848  -74.1638 H         1 UNK         0.0461 
     84 H84       -70.9731   32.2915  -70.4912 H         1 UNK         0.3453 
     85 H85       -70.9593   30.9392  -71.5956 H         1 UNK         0.3453 
     86 H86       -72.3152   29.7592  -73.7817 H         1 UNK         0.2984 
     87 H87       -69.2329   29.7853  -75.5651 H         1 UNK         0.0554 
     88 H88       -68.2978   30.1083  -73.2356 H         1 UNK         0.0847 
     89 H89       -68.1861   28.4425  -73.7679 H         1 UNK         0.0847 
     90 H90       -69.4405   28.9180  -72.6257 H         1 UNK         0.0847 
     91 H91       -71.6628   28.4375  -74.8002 H         1 UNK         0.3141 
     92 H92       -70.8559   25.4711  -76.5656 H         1 UNK         0.0743 
     93 H93       -70.6251   24.9872  -74.1387 H         1 UNK         0.0784 
     94 H94       -72.2160   24.5344  -74.7259 H         1 UNK         0.0784 
     95 H95       -72.0105   26.0035  -73.7760 H         1 UNK         0.0784 
     96 H96       -72.7468   26.2353  -77.3863 H         1 UNK         0.3213 
     97 H97       -75.4344   28.2387  -76.2248 H         1 UNK         0.0855 
     98 H98       -73.6205   28.3420  -78.6936 H         1 UNK         0.0814 
     99 H99       -73.9251   29.6666  -77.5814 H         1 UNK         0.0814 
    100 H100      -75.2375   29.0316  -78.5596 H         1 UNK         0.0814 
    101 H101      -76.2981   26.3893  -77.0193 H         1 UNK         0.3105 
    102 H102      -76.6547   24.6144  -78.8882 H         1 UNK         0.0547 
    103 H103      -75.7211   22.2876  -79.0780 H         1 UNK         0.0837 
    104 H104      -74.1405   22.8823  -78.5710 H         1 UNK         0.0837 
    105 H105      -74.8481   23.4393  -80.0767 H         1 UNK         0.0837 
    106 H106      -77.2054   24.2012  -76.7893 H         1 UNK         0.3020 
    107 H107      -75.6941   22.8804  -73.9318 H         1 UNK         0.1245 
    108 H108      -76.4263   25.8273  -74.4016 H         1 UNK         0.0781 
    109 H109      -74.8366   25.2761  -73.9220 H         1 UNK         0.0781 
    110 H110      -74.7002   26.7586  -72.0166 H         1 UNK         0.0836 
    111 H111      -75.5436   26.5829  -70.5028 H         1 UNK         0.0836 
    112 H112      -78.2350   24.1302  -74.4190 H         1 UNK         0.3022 
    113 H113      -79.8662   21.1751  -75.5993 H         1 UNK         0.0747 
    114 H114      -81.3664   21.6878  -73.7407 H         1 UNK         0.0793 
    115 H115      -79.8650   21.0667  -73.0871 H         1 UNK         0.0793 
    116 H116      -80.1927   22.7917  -73.0160 H         1 UNK         0.0793 
    117 H117      -80.5736   23.9740  -75.1301 H         1 UNK         0.3047 
    118 H118      -80.0089   24.9861  -78.4912 H         1 UNK         0.0822 
    119 H119      -82.4238   25.5649  -78.4700 H         1 UNK         0.0807 
    120 H120      -82.7070   24.4511  -77.1319 H         1 UNK         0.0807 
    121 H121      -82.2170   23.8374  -78.7050 H         1 UNK         0.0807 
    122 H122      -81.2609   26.2500  -76.2331 H         1 UNK         0.2946 
    123 H123      -78.3244   27.5944  -74.7892 H         1 UNK         0.1144 
    124 H124      -79.4937   29.7593  -75.3480 H         1 UNK         0.0793 
    125 H125      -80.3917   28.9439  -76.6220 H         1 UNK         0.0793 
    126 H126      -78.6452   29.1004  -76.7421 H         1 UNK         0.0793 
    127 H127      -80.9620   28.2360  -74.2057 H         1 UNK         0.2896 
@<TRIPOS>BOND
     1    1    2 1    
     2    1   67 1    
     3    1   68 1    
     4    1   69 1    
     5    2    3 2    
     6    2    4 am   BACKBONE|DICT|INTERRES
     7    4    5 1    
     8    4   70 1    
     9    5    6 1    
    10    5   65 1    
    11    5   71 1    
    12    6    7 1    
    13    6   72 1    
    14    6   73 1    
    15    7    8 1    
    16    8    9 1    
    17    8   74 1    
    18    8   75 1    
    19    9   10 ar   
    20    9   14 ar   
    21   10   11 ar   
    22   10   76 1    
    23   11   12 ar   
    24   11   48 1    
    25   12   13 ar   
    26   12   77 1    
    27   13   14 ar   
    28   13   15 1    
    29   14   78 1    
    30   15   16 1    
    31   15   79 1    
    32   15   80 1    
    33   16   17 1    
    34   17   18 1    
    35   17   81 1    
    36   17   82 1    
    37   18   19 1    
    38   18   22 1    
    39   18   83 1    
    40   19   20 am   BACKBONE|DICT|INTERRES
    41   19   21 2    
    42   20   84 1    
    43   20   85 1    
    44   22   23 am   BACKBONE|DICT|INTERRES
    45   22   86 1    
    46   23   24 2    
    47   23   25 1    
    48   25   26 1    
    49   25   27 1    
    50   25   87 1    
    51   26   88 1    
    52   26   89 1    
    53   26   90 1    
    54   27   28 am   BACKBONE|DICT|INTERRES
    55   27   91 1    
    56   28   29 2    
    57   28   30 1    
    58   30   31 1    
    59   30   32 1    
    60   30   92 1    
    61   31   93 1    
    62   31   94 1    
    63   31   95 1    
    64   32   33 am   BACKBONE|DICT|INTERRES
    65   32   96 1    
    66   33   34 2    
    67   33   35 1    
    68   35   36 1    
    69   35   37 1    
    70   35   97 1    
    71   36   98 1    
    72   36   99 1    
    73   36  100 1    
    74   37   38 am   BACKBONE|DICT|INTERRES
    75   37  101 1    
    76   38   39 2    
    77   38   40 1    
    78   40   41 1    
    79   40   42 1    
    80   40  102 1    
    81   41  103 1    
    82   41  104 1    
    83   41  105 1    
    84   42   43 am   BACKBONE|DICT|INTERRES
    85   42  106 1    
    86   43   44 2    
    87   43   45 1    
    88   45   46 1    
    89   45   49 1    
    90   45  107 1    
    91   46   47 1    
    92   46  108 1    
    93   46  109 1    
    94   47   48 1    
    95   48  110 1    
    96   48  111 1    
    97   49   50 am   BACKBONE|DICT|INTERRES
    98   49  112 1    
    99   50   51 2    
   100   50   52 1    
   101   52   53 1    
   102   52   54 1    
   103   52  113 1    
   104   53  114 1    
   105   53  115 1    
   106   53  116 1    
   107   54   55 am   BACKBONE|DICT|INTERRES
   108   54  117 1    
   109   55   56 2    
   110   55   57 1    
   111   57   58 1    
   112   57   59 1    
   113   57  118 1    
   114   58  119 1    
   115   58  120 1    
   116   58  121 1    
   117   59   60 am   BACKBONE|DICT|INTERRES
   118   59  122 1    
   119   60   61 2    
   120   60   62 1    
   121   62   63 1    
   122   62   64 1    
   123   62  123 1    
   124   63  124 1    
   125   63  125 1    
   126   63  126 1    
   127   64   65 am   BACKBONE|DICT|INTERRES
   128   64  127 1    
   129   65   66 2    
@<TRIPOS>SUBSTRUCTURE
     1 UNK         1 GROUP             0       ****    0 ROOT    
