@<TRIPOS>MOLECULE
3R135
127   129    1
SMALL
USER_CHARGES


@<TRIPOS>ATOM
      1 CA        -84.1234   25.1972  -75.5629 C.3       0 UNK        -0.1998 
      2 C         -83.4976   26.5650  -75.3338 C.2       0 UNK         0.4909 
      3 O         -84.0693   27.5776  -75.7385 O.2       0 UNK        -0.5240 
      4 N         -82.3277   26.6016  -74.6902 N.am      1 UNK        -0.4739 
      5 CA        -81.5440   27.8022  -74.4119 C.3       1 UNK         0.0864 
      6 C6        -82.0349   28.5187  -73.1254 C.3       11 UNK        -0.0881 
      7 S7        -81.3243   30.1884  -72.8863 S.3       11 UNK        -0.2682 
      8 C8        -80.8376   30.1728  -71.1282 C.3       11 UNK         0.0289 
      9 C9        -79.6392   29.2739  -70.8470 C.ar      11 UNK        -0.0687 
     10 C10       -79.8383   27.9622  -70.4078 C.ar      11 UNK        -0.0823 
     11 C11       -78.7518   27.1305  -70.1330 C.ar      11 UNK        -0.0830 
     12 C12       -77.4535   27.6305  -70.2610 C.ar      11 UNK        -0.1021 
     13 C13       -77.2339   28.9407  -70.6989 C.ar      11 UNK        -0.0753 
     14 C14       -78.3333   29.7579  -70.9916 C.ar      11 UNK        -0.0933 
     15 C15       -75.8095   29.4660  -70.8472 C.3       11 UNK         0.0166 
     16 S16       -74.8417   28.4543  -72.0114 S.3       11 UNK        -0.2615 
     17 C17       -73.2303   29.3132  -72.0407 C.3       11 UNK        -0.0865 
     18 CA        -73.0683   30.2813  -73.2440 C.3       10 UNK         0.0862 
     19 C         -71.6662   30.9470  -73.2247 C.2       10 UNK         0.5551 
     20 N         -71.5467   32.1264  -72.6308 N.am      10 UNK        -0.7319 
     21 O         -70.6825   30.3806  -73.6970 O.2       10 UNK        -0.5018 
     22 N         -73.3627   29.6200  -74.5238 N.am      10 UNK        -0.4509 
     23 C         -73.5632   30.2498  -75.6883 C.2       10 UNK         0.4899 
     24 O         -73.4591   31.4677  -75.8430 O.2       10 UNK        -0.4839 
     25 CA        -74.0119   29.3521  -76.8557 C.3       9 UNK         0.0222 
     26 CB        -74.2909   30.1282  -78.1606 C.3       9 UNK        -0.1966 
     27 N         -73.0986   28.2284  -77.0818 N.am      9 UNK        -0.4218 
     28 C         -71.8256   28.2761  -77.5046 C.2       9 UNK         0.5020 
     29 O         -71.2266   29.3194  -77.7684 O.2       9 UNK        -0.5274 
     30 CA        -71.0786   26.9342  -77.6608 C.3       8 UNK         0.0270 
     31 CB        -69.8804   26.8697  -76.6978 C.3       8 UNK        -0.1976 
     32 N         -71.9136   25.7496  -77.4399 N.am      8 UNK        -0.4313 
     33 C         -72.8754   25.2823  -78.2443 C.2       8 UNK         0.5041 
     34 O         -73.1505   25.7832  -79.3341 O.2       8 UNK        -0.5577 
     35 CA        -73.7100   24.0924  -77.7284 C.3       7 UNK         0.0284 
     36 CB        -73.0804   22.7481  -78.1431 C.3       7 UNK        -0.1958 
     37 N         -74.0125   24.1353  -76.2840 N.am      7 UNK        -0.4454 
     38 C         -73.1596   24.0192  -75.2550 C.2       7 UNK         0.5089 
     39 O         -71.9517   23.8240  -75.3932 O.2       7 UNK        -0.5125 
     40 CA        -73.7042   24.2268  -73.8372 C.3       6 UNK         0.0408 
     41 CB        -73.2085   25.5747  -73.2908 C.3       6 UNK        -0.1791 
     42 N         -75.1684   24.2005  -73.7558 N.am      6 UNK        -0.4762 
     43 C         -75.8592   23.2169  -73.1622 C.2       6 UNK         0.5007 
     44 O         -75.3554   22.1600  -72.7783 O.2       6 UNK        -0.5032 
     45 CA        -77.3557   23.4697  -72.9034 C.3       5 UNK         0.0783 
     46 C46       -77.5373   24.5725  -71.8338 C.3       11 UNK        -0.0857 
     47 S47       -79.2297   24.6126  -71.1619 S.3       11 UNK        -0.2512 
     48 C48       -78.9889   25.6886  -69.7122 C.3       11 UNK         0.0225 
     49 N         -78.0952   23.7643  -74.1316 N.am      5 UNK        -0.4615 
     50 C         -78.3432   22.8788  -75.1063 C.2       4 UNK         0.5053 
     51 O         -77.9563   21.7105  -75.0902 O.2       4 UNK        -0.5105 
     52 CA        -79.1653   23.3812  -76.3022 C.3       4 UNK         0.0263 
     53 CB        -80.6683   23.3720  -75.9761 C.3       4 UNK        -0.1981 
     54 N         -78.7439   24.7288  -76.6882 N.am      4 UNK        -0.4224 
     55 C         -77.7525   24.9770  -77.5557 C.2       3 UNK         0.4895 
     56 O         -77.1847   24.0987  -78.2031 O.2       3 UNK        -0.5091 
     57 CA        -77.3007   26.4379  -77.7409 C.3       3 UNK         0.0250 
     58 CB        -77.8661   27.0172  -79.0471 C.3       3 UNK        -0.1996 
     59 N         -77.6717   27.3141  -76.6289 N.am      3 UNK        -0.4254 
     60 C         -77.1102   27.2886  -75.4129 C.2       2 UNK         0.5004 
     61 O         -76.1869   26.5358  -75.0976 O.2       2 UNK        -0.5226 
     62 CA        -77.7142   28.2449  -74.3710 C.3       2 UNK         0.0269 
     63 CB        -77.1056   29.6480  -74.5082 C.3       2 UNK        -0.1926 
     64 N         -79.1698   28.3788  -74.4517 N.am      2 UNK        -0.4687 
     65 C         -80.0614   27.3867  -74.3656 C.2       1 UNK         0.5165 
     66 O         -79.7494   26.1937  -74.2944 O.2       1 UNK        -0.5079 
     67 H67       -85.1381   25.1775  -75.1661 H         1 UNK         0.0900 
     68 H68       -83.5564   24.4028  -75.0780 H         1 UNK         0.0900 
     69 H69       -84.1697   24.9798  -76.6296 H         1 UNK         0.0900 
     70 H70       -81.8609   25.7474  -74.4114 H         1 UNK         0.2959 
     71 H71       -81.6559   28.4832  -75.2590 H         1 UNK         0.1079 
     72 H72       -83.1172   28.6487  -73.1733 H         1 UNK         0.0837 
     73 H73       -81.8608   27.8901  -72.2542 H         1 UNK         0.0837 
     74 H74       -81.6924   29.8708  -70.5208 H         1 UNK         0.0685 
     75 H75       -80.6014   31.1939  -70.8254 H         1 UNK         0.0685 
     76 H76       -80.8413   27.5791  -70.2834 H         1 UNK         0.1434 
     77 H77       -76.6079   26.9927  -70.0423 H         1 UNK         0.1329 
     78 H78       -78.1760   30.7737  -71.3272 H         1 UNK         0.1335 
     79 H79       -75.8127   30.4999  -71.1956 H         1 UNK         0.0680 
     80 H80       -75.3232   29.4617  -69.8709 H         1 UNK         0.0680 
     81 H81       -73.0942   29.8480  -71.0987 H         1 UNK         0.1032 
     82 H82       -72.4504   28.5494  -72.0641 H         1 UNK         0.1032 
     83 H83       -73.8141   31.0706  -73.1258 H         1 UNK         0.0461 
     84 H84       -70.6401   32.5657  -72.5926 H         1 UNK         0.3453 
     85 H85       -72.3459   32.5943  -72.2324 H         1 UNK         0.3453 
     86 H86       -73.4614   28.6178  -74.4854 H         1 UNK         0.2984 
     87 H87       -74.9579   28.9070  -76.5493 H         1 UNK         0.0554 
     88 H88       -75.0659   30.8801  -78.0066 H         1 UNK         0.0847 
     89 H89       -74.6385   29.4628  -78.9509 H         1 UNK         0.0847 
     90 H90       -73.4049   30.6488  -78.5249 H         1 UNK         0.0847 
     91 H91       -73.4787   27.3121  -76.8959 H         1 UNK         0.3141 
     92 H92       -70.7013   26.8944  -78.6846 H         1 UNK         0.0743 
     93 H93       -69.1999   27.7068  -76.8597 H         1 UNK         0.0784 
     94 H94       -70.1995   26.9065  -75.6552 H         1 UNK         0.0784 
     95 H95       -69.3042   25.9552  -76.8408 H         1 UNK         0.0784 
     96 H96       -71.7386   25.2144  -76.5916 H         1 UNK         0.3213 
     97 H97       -74.6707   24.1607  -78.2357 H         1 UNK         0.0855 
     98 H98       -72.0867   22.6078  -77.7171 H         1 UNK         0.0814 
     99 H99       -72.9759   22.6889  -79.2273 H         1 UNK         0.0814 
    100 H100      -73.7014   21.9081  -77.8320 H         1 UNK         0.0814 
    101 H101      -74.9766   24.3291  -76.0496 H         1 UNK         0.3105 
    102 H102      -73.2688   23.4417  -73.2158 H         1 UNK         0.0547 
    103 H103      -72.1195   25.6363  -73.3118 H         1 UNK         0.0837 
    104 H104      -73.5954   26.4098  -73.8749 H         1 UNK         0.0837 
    105 H105      -73.5174   25.7164  -72.2552 H         1 UNK         0.0837 
    106 H106      -75.6554   25.0348  -74.0795 H         1 UNK         0.3020 
    107 H107      -77.7590   22.5393  -72.4961 H         1 UNK         0.1245 
    108 H108      -77.2976   25.5535  -72.2486 H         1 UNK         0.0781 
    109 H109      -76.8532   24.4145  -70.9973 H         1 UNK         0.0781 
    110 H110      -79.8747   25.6303  -69.0780 H         1 UNK         0.0836 
    111 H111      -78.1589   25.3195  -69.1078 H         1 UNK         0.0836 
    112 H112      -78.5184   24.6856  -74.1879 H         1 UNK         0.3022 
    113 H113      -79.0047   22.6943  -77.1363 H         1 UNK         0.0747 
    114 H114      -81.0150   22.3549  -75.7889 H         1 UNK         0.0793 
    115 H115      -81.2578   23.7683  -76.8030 H         1 UNK         0.0793 
    116 H116      -80.8976   23.9571  -75.0863 H         1 UNK         0.0793 
    117 H117      -79.1339   25.4942  -76.1523 H         1 UNK         0.3047 
    118 H118      -76.2110   26.4319  -77.8169 H         1 UNK         0.0822 
    119 H119      -77.5779   26.4042  -79.9025 H         1 UNK         0.0807 
    120 H120      -77.4880   28.0231  -79.2314 H         1 UNK         0.0807 
    121 H121      -78.9557   27.0634  -79.0315 H         1 UNK         0.0807 
    122 H122      -78.4256   27.9659  -76.7916 H         1 UNK         0.2946 
    123 H123      -77.4755   27.8473  -73.3828 H         1 UNK         0.1144 
    124 H124      -77.5008   30.3300  -73.7560 H         1 UNK         0.0793 
    125 H125      -77.2961   30.0840  -75.4897 H         1 UNK         0.0793 
    126 H126      -76.0298   29.6171  -74.3672 H         1 UNK         0.0793 
    127 H127      -79.5270   29.3244  -74.4675 H         1 UNK         0.2896 
@<TRIPOS>BOND
     1    1    2 1    
     2    1   67 1    
     3    1   68 1    
     4    1   69 1    
     5    2    3 2    
     6    2    4 am   BACKBONE|DICT|INTERRES
     7    4    5 1    
     8    4   70 1    
     9    5    6 1    
    10    5   65 1    
    11    5   71 1    
    12    6    7 1    
    13    6   72 1    
    14    6   73 1    
    15    7    8 1    
    16    8    9 1    
    17    8   74 1    
    18    8   75 1    
    19    9   10 ar   
    20    9   14 ar   
    21   10   11 ar   
    22   10   76 1    
    23   11   12 ar   
    24   11   48 1    
    25   12   13 ar   
    26   12   77 1    
    27   13   14 ar   
    28   13   15 1    
    29   14   78 1    
    30   15   16 1    
    31   15   79 1    
    32   15   80 1    
    33   16   17 1    
    34   17   18 1    
    35   17   81 1    
    36   17   82 1    
    37   18   19 1    
    38   18   22 1    
    39   18   83 1    
    40   19   20 am   BACKBONE|DICT|INTERRES
    41   19   21 2    
    42   20   84 1    
    43   20   85 1    
    44   22   23 am   BACKBONE|DICT|INTERRES
    45   22   86 1    
    46   23   24 2    
    47   23   25 1    
    48   25   26 1    
    49   25   27 1    
    50   25   87 1    
    51   26   88 1    
    52   26   89 1    
    53   26   90 1    
    54   27   28 am   BACKBONE|DICT|INTERRES
    55   27   91 1    
    56   28   29 2    
    57   28   30 1    
    58   30   31 1    
    59   30   32 1    
    60   30   92 1    
    61   31   93 1    
    62   31   94 1    
    63   31   95 1    
    64   32   33 am   BACKBONE|DICT|INTERRES
    65   32   96 1    
    66   33   34 2    
    67   33   35 1    
    68   35   36 1    
    69   35   37 1    
    70   35   97 1    
    71   36   98 1    
    72   36   99 1    
    73   36  100 1    
    74   37   38 am   BACKBONE|DICT|INTERRES
    75   37  101 1    
    76   38   39 2    
    77   38   40 1    
    78   40   41 1    
    79   40   42 1    
    80   40  102 1    
    81   41  103 1    
    82   41  104 1    
    83   41  105 1    
    84   42   43 am   BACKBONE|DICT|INTERRES
    85   42  106 1    
    86   43   44 2    
    87   43   45 1    
    88   45   46 1    
    89   45   49 1    
    90   45  107 1    
    91   46   47 1    
    92   46  108 1    
    93   46  109 1    
    94   47   48 1    
    95   48  110 1    
    96   48  111 1    
    97   49   50 am   BACKBONE|DICT|INTERRES
    98   49  112 1    
    99   50   51 2    
   100   50   52 1    
   101   52   53 1    
   102   52   54 1    
   103   52  113 1    
   104   53  114 1    
   105   53  115 1    
   106   53  116 1    
   107   54   55 am   BACKBONE|DICT|INTERRES
   108   54  117 1    
   109   55   56 2    
   110   55   57 1    
   111   57   58 1    
   112   57   59 1    
   113   57  118 1    
   114   58  119 1    
   115   58  120 1    
   116   58  121 1    
   117   59   60 am   BACKBONE|DICT|INTERRES
   118   59  122 1    
   119   60   61 2    
   120   60   62 1    
   121   62   63 1    
   122   62   64 1    
   123   62  123 1    
   124   63  124 1    
   125   63  125 1    
   126   63  126 1    
   127   64   65 am   BACKBONE|DICT|INTERRES
   128   64  127 1    
   129   65   66 2    
@<TRIPOS>SUBSTRUCTURE
     1 UNK         1 GROUP             0       ****    0 ROOT    
