@<TRIPOS>MOLECULE
3R135
127   129    1
SMALL
USER_CHARGES


@<TRIPOS>ATOM
      1 CA        -82.7068   27.4081  -70.3338 C.3       0 UNK        -0.1998 
      2 C         -83.0563   27.4377  -71.8141 C.2       0 UNK         0.4909 
      3 O         -84.2143   27.2274  -72.1755 O.2       0 UNK        -0.5240 
      4 N         -82.0615   27.6990  -72.6723 N.am      1 UNK        -0.4739 
      5 CA        -82.2063   27.7784  -74.1336 C.3       1 UNK         0.0864 
      6 C6        -80.9537   28.3866  -74.8159 C.3       11 UNK        -0.0881 
      7 S7        -80.4819   30.0253  -74.1692 S.3       11 UNK        -0.2682 
      8 C8        -78.7109   30.0808  -74.6256 C.3       11 UNK         0.0289 
      9 C9        -77.7440   29.4663  -73.6084 C.ar      11 UNK        -0.0687 
     10 C10       -78.1378   28.4889  -72.6848 C.ar      11 UNK        -0.0823 
     11 C11       -77.2318   27.9702  -71.7566 C.ar      11 UNK        -0.0830 
     12 C12       -75.9134   28.4316  -71.7516 C.ar      11 UNK        -0.1021 
     13 C13       -75.4966   29.3943  -72.6742 C.ar      11 UNK        -0.0753 
     14 C14       -76.4127   29.8989  -73.6029 C.ar      11 UNK        -0.0933 
     15 C15       -74.0605   29.8955  -72.6573 C.3       11 UNK         0.0166 
     16 S16       -73.9553   31.5371  -71.8787 S.3       11 UNK        -0.2615 
     17 C17       -72.2093   31.6088  -71.3514 C.3       11 UNK        -0.0865 
     18 CA        -71.2952   32.3799  -72.3531 C.3       10 UNK         0.0862 
     19 C         -69.9072   32.7693  -71.7512 C.2       10 UNK         0.5551 
     20 N         -69.8683   33.2814  -70.5279 N.am      10 UNK        -0.7319 
     21 O         -68.8633   32.6641  -72.3937 O.2       10 UNK        -0.5018 
     22 N         -71.1925   31.7151  -73.6662 N.am      10 UNK        -0.4509 
     23 C         -70.6617   30.5075  -73.8978 C.2       10 UNK         0.4899 
     24 O         -70.2517   29.7449  -73.0188 O.2       10 UNK        -0.4839 
     25 CA        -70.5355   30.0929  -75.3711 C.3       9 UNK         0.0222 
     26 CB        -69.1565   30.4905  -75.9229 C.3       9 UNK        -0.1966 
     27 N         -70.7005   28.6444  -75.4887 N.am      9 UNK        -0.4218 
     28 C         -71.8787   28.0334  -75.6503 C.2       9 UNK         0.5020 
     29 O         -72.9383   28.6284  -75.8581 O.2       9 UNK        -0.5274 
     30 CA        -71.8687   26.5044  -75.5050 C.3       8 UNK         0.0270 
     31 CB        -72.0115   26.1102  -74.0248 C.3       8 UNK        -0.1976 
     32 N         -72.9634   25.9080  -76.2705 N.am      8 UNK        -0.4313 
     33 C         -72.8868   25.5943  -77.5721 C.2       8 UNK         0.5041 
     34 O         -71.8529   25.6996  -78.2348 O.2       8 UNK        -0.5577 
     35 CA        -74.1556   25.0603  -78.2669 C.3       7 UNK         0.0284 
     36 CB        -74.0976   23.5284  -78.3848 C.3       7 UNK        -0.1958 
     37 N         -75.3985   25.4371  -77.5948 N.am      7 UNK        -0.4454 
     38 C         -75.8886   26.6811  -77.5158 C.2       7 UNK         0.5089 
     39 O         -75.4103   27.6436  -78.1159 O.2       7 UNK        -0.5125 
     40 CA        -77.1199   26.8917  -76.6138 C.3       6 UNK         0.0408 
     41 CB        -78.3887   26.9786  -77.4764 C.3       6 UNK        -0.1791 
     42 N         -77.3098   25.8587  -75.5879 N.am      6 UNK        -0.4762 
     43 C         -76.4409   25.5439  -74.6136 C.2       6 UNK         0.5007 
     44 O         -75.3412   26.0776  -74.4810 O.2       6 UNK        -0.5032 
     45 CA        -76.8319   24.3703  -73.6979 C.3       5 UNK         0.0783 
     46 C46       -77.8378   24.7828  -72.5911 C.3       11 UNK        -0.0857 
     47 S47       -76.9847   25.2882  -71.0602 S.3       11 UNK        -0.2512 
     48 C48       -77.6855   26.9361  -70.7364 C.3       11 UNK         0.0225 
     49 N         -77.3378   23.2583  -74.5043 N.am      5 UNK        -0.4615 
     50 C         -76.5653   22.3334  -75.0896 C.2       4 UNK         0.5053 
     51 O         -75.3416   22.2893  -74.9677 O.2       4 UNK        -0.5105 
     52 CA        -77.2675   21.2756  -75.9601 C.3       4 UNK         0.0263 
     53 CB        -77.5446   20.0058  -75.1394 C.3       4 UNK        -0.1981 
     54 N         -78.5204   21.7489  -76.5535 N.am      4 UNK        -0.4224 
     55 C         -78.5993   22.6774  -77.5166 C.2       3 UNK         0.4895 
     56 O         -77.6202   23.2103  -78.0381 O.2       3 UNK        -0.5091 
     57 CA        -80.0130   23.1163  -77.9381 C.3       3 UNK         0.0250 
     58 CB        -80.5579   22.1890  -79.0362 C.3       3 UNK        -0.1996 
     59 N         -80.9831   23.1966  -76.8363 N.am      3 UNK        -0.4254 
     60 C         -80.8338   23.9480  -75.7368 C.2       2 UNK         0.5004 
     61 O         -79.8055   24.5739  -75.4674 O.2       2 UNK        -0.5226 
     62 CA        -82.0071   23.9883  -74.7457 C.3       2 UNK         0.0269 
     63 CB        -81.8059   22.9420  -73.6380 C.3       2 UNK        -0.1926 
     64 N         -82.0907   25.3177  -74.1393 N.am      2 UNK        -0.4687 
     65 C         -82.5109   26.4137  -74.7879 C.2       1 UNK         0.5165 
     66 O         -83.0766   26.3809  -75.8821 O.2       1 UNK        -0.5079 
     67 H67       -81.6515   27.6159  -70.1583 H         1 UNK         0.0900 
     68 H68       -82.9337   26.4282  -69.9145 H         1 UNK         0.0900 
     69 H69       -83.2925   28.1529  -69.7957 H         1 UNK         0.0900 
     70 H70       -81.1448   27.9138  -72.3121 H         1 UNK         0.2959 
     71 H71       -83.0585   28.4284  -74.3450 H         1 UNK         0.1079 
     72 H72       -80.1045   27.7069  -74.7210 H         1 UNK         0.0837 
     73 H73       -81.1276   28.5014  -75.8879 H         1 UNK         0.0837 
     74 H74       -78.5700   29.6004  -75.5943 H         1 UNK         0.0685 
     75 H75       -78.4506   31.1307  -74.7680 H         1 UNK         0.0685 
     76 H76       -79.1538   28.1317  -72.6699 H         1 UNK         0.1434 
     77 H77       -75.2122   28.0375  -71.0287 H         1 UNK         0.1329 
     78 H78       -76.0869   30.6472  -74.3126 H         1 UNK         0.1335 
     79 H79       -73.4200   29.1861  -72.1311 H         1 UNK         0.0680 
     80 H80       -73.6803   29.9587  -73.6767 H         1 UNK         0.0680 
     81 H81       -71.8283   30.6061  -71.1555 H         1 UNK         0.1032 
     82 H82       -72.2199   32.1026  -70.3794 H         1 UNK         0.1032 
     83 H83       -71.7741   33.3370  -72.5635 H         1 UNK         0.0461 
     84 H84       -68.9766   33.5518  -70.1427 H         1 UNK         0.3453 
     85 H85       -70.7075   33.4241  -69.9887 H         1 UNK         0.3453 
     86 H86       -71.4731   32.2780  -74.4561 H         1 UNK         0.2984 
     87 H87       -71.3032   30.6035  -75.9569 H         1 UNK         0.0554 
     88 H88       -69.0502   30.2056  -76.9698 H         1 UNK         0.0847 
     89 H89       -68.3453   30.0230  -75.3630 H         1 UNK         0.0847 
     90 H90       -69.0095   31.5699  -75.8647 H         1 UNK         0.0847 
     91 H91       -69.8919   28.0849  -75.2570 H         1 UNK         0.3141 
     92 H92       -70.9166   26.1167  -75.8744 H         1 UNK         0.0743 
     93 H93       -72.9082   26.5402  -73.5764 H         1 UNK         0.0784 
     94 H94       -72.0612   25.0281  -73.9030 H         1 UNK         0.0784 
     95 H95       -71.1601   26.4648  -73.4424 H         1 UNK         0.0784 
     96 H96       -73.8664   25.8841  -75.8044 H         1 UNK         0.3213 
     97 H97       -74.1781   25.4819  -79.2741 H         1 UNK         0.0855 
     98 H98       -74.0908   23.0489  -77.4051 H         1 UNK         0.0814 
     99 H99       -73.1959   23.2107  -78.9101 H         1 UNK         0.0814 
    100 H100      -74.9502   23.1400  -78.9424 H         1 UNK         0.0814 
    101 H101      -75.9111   24.6995  -77.1304 H         1 UNK         0.3105 
    102 H102      -76.9826   27.8410  -76.0937 H         1 UNK         0.0547 
    103 H103      -78.3259   27.8096  -78.1800 H         1 UNK         0.0837 
    104 H104      -78.5357   26.0690  -78.0590 H         1 UNK         0.0837 
    105 H105      -79.2801   27.1318  -76.8714 H         1 UNK         0.0837 
    106 H106      -78.1978   25.3585  -75.6141 H         1 UNK         0.3020 
    107 H107      -75.9125   24.0309  -73.2138 H         1 UNK         0.1245 
    108 H108      -78.4664   23.9334  -72.3187 H         1 UNK         0.0781 
    109 H109      -78.5296   25.5553  -72.9319 H         1 UNK         0.0781 
    110 H110      -77.3735   27.2588  -69.7421 H         1 UNK         0.0836 
    111 H111      -78.7737   26.8647  -70.7023 H         1 UNK         0.0836 
    112 H112      -78.3263   23.2805  -74.7205 H         1 UNK         0.3022 
    113 H113      -76.5854   21.0160  -76.7728 H         1 UNK         0.0747 
    114 H114      -77.9698   19.2166  -75.7599 H         1 UNK         0.0793 
    115 H115      -76.6235   19.6132  -74.7060 H         1 UNK         0.0793 
    116 H116      -78.2353   20.1976  -74.3172 H         1 UNK         0.0793 
    117 H117      -79.3784   21.3643  -76.1857 H         1 UNK         0.3047 
    118 H118      -79.9246   24.1193  -78.3593 H         1 UNK         0.0822 
    119 H119      -81.5059   22.5547  -79.4312 H         1 UNK         0.0807 
    120 H120      -80.7153   21.1742  -78.6687 H         1 UNK         0.0807 
    121 H121      -79.8632   22.1276  -79.8754 H         1 UNK         0.0807 
    122 H122      -81.8517   22.6981  -76.9687 H         1 UNK         0.2946 
    123 H123      -82.9390   23.7793  -75.2761 H         1 UNK         0.1144 
    124 H124      -82.6276   22.9616  -72.9217 H         1 UNK         0.0793 
    125 H125      -80.8784   23.1066  -73.0877 H         1 UNK         0.0793 
    126 H126      -81.7646   21.9343  -74.0535 H         1 UNK         0.0793 
    127 H127      -81.6199   25.4443  -73.2562 H         1 UNK         0.2896 
@<TRIPOS>BOND
     1    1    2 1    
     2    1   67 1    
     3    1   68 1    
     4    1   69 1    
     5    2    3 2    
     6    2    4 am   BACKBONE|DICT|INTERRES
     7    4    5 1    
     8    4   70 1    
     9    5    6 1    
    10    5   65 1    
    11    5   71 1    
    12    6    7 1    
    13    6   72 1    
    14    6   73 1    
    15    7    8 1    
    16    8    9 1    
    17    8   74 1    
    18    8   75 1    
    19    9   10 ar   
    20    9   14 ar   
    21   10   11 ar   
    22   10   76 1    
    23   11   12 ar   
    24   11   48 1    
    25   12   13 ar   
    26   12   77 1    
    27   13   14 ar   
    28   13   15 1    
    29   14   78 1    
    30   15   16 1    
    31   15   79 1    
    32   15   80 1    
    33   16   17 1    
    34   17   18 1    
    35   17   81 1    
    36   17   82 1    
    37   18   19 1    
    38   18   22 1    
    39   18   83 1    
    40   19   20 am   BACKBONE|DICT|INTERRES
    41   19   21 2    
    42   20   84 1    
    43   20   85 1    
    44   22   23 am   BACKBONE|DICT|INTERRES
    45   22   86 1    
    46   23   24 2    
    47   23   25 1    
    48   25   26 1    
    49   25   27 1    
    50   25   87 1    
    51   26   88 1    
    52   26   89 1    
    53   26   90 1    
    54   27   28 am   BACKBONE|DICT|INTERRES
    55   27   91 1    
    56   28   29 2    
    57   28   30 1    
    58   30   31 1    
    59   30   32 1    
    60   30   92 1    
    61   31   93 1    
    62   31   94 1    
    63   31   95 1    
    64   32   33 am   BACKBONE|DICT|INTERRES
    65   32   96 1    
    66   33   34 2    
    67   33   35 1    
    68   35   36 1    
    69   35   37 1    
    70   35   97 1    
    71   36   98 1    
    72   36   99 1    
    73   36  100 1    
    74   37   38 am   BACKBONE|DICT|INTERRES
    75   37  101 1    
    76   38   39 2    
    77   38   40 1    
    78   40   41 1    
    79   40   42 1    
    80   40  102 1    
    81   41  103 1    
    82   41  104 1    
    83   41  105 1    
    84   42   43 am   BACKBONE|DICT|INTERRES
    85   42  106 1    
    86   43   44 2    
    87   43   45 1    
    88   45   46 1    
    89   45   49 1    
    90   45  107 1    
    91   46   47 1    
    92   46  108 1    
    93   46  109 1    
    94   47   48 1    
    95   48  110 1    
    96   48  111 1    
    97   49   50 am   BACKBONE|DICT|INTERRES
    98   49  112 1    
    99   50   51 2    
   100   50   52 1    
   101   52   53 1    
   102   52   54 1    
   103   52  113 1    
   104   53  114 1    
   105   53  115 1    
   106   53  116 1    
   107   54   55 am   BACKBONE|DICT|INTERRES
   108   54  117 1    
   109   55   56 2    
   110   55   57 1    
   111   57   58 1    
   112   57   59 1    
   113   57  118 1    
   114   58  119 1    
   115   58  120 1    
   116   58  121 1    
   117   59   60 am   BACKBONE|DICT|INTERRES
   118   59  122 1    
   119   60   61 2    
   120   60   62 1    
   121   62   63 1    
   122   62   64 1    
   123   62  123 1    
   124   63  124 1    
   125   63  125 1    
   126   63  126 1    
   127   64   65 am   BACKBONE|DICT|INTERRES
   128   64  127 1    
   129   65   66 2    
@<TRIPOS>SUBSTRUCTURE
     1 UNK         1 GROUP             0       ****    0 ROOT    
