@<TRIPOS>MOLECULE
3R135
127   129    1
SMALL
USER_CHARGES


@<TRIPOS>ATOM
      1 CA        -78.4837   24.1119  -69.3358 C.3       0 UNK        -0.1998 
      2 C         -79.8539   23.9032  -69.9636 C.2       0 UNK         0.4909 
      3 O         -80.4929   22.8790  -69.7191 O.2       0 UNK        -0.5240 
      4 N         -80.3102   24.8717  -70.7657 N.am      1 UNK        -0.4739 
      5 CA        -81.5464   24.8020  -71.5501 C.3       1 UNK         0.0864 
      6 C6        -82.0514   26.2179  -71.9368 C.3       11 UNK        -0.0881 
      7 S7        -80.8459   27.2125  -72.8868 S.3       11 UNK        -0.2682 
      8 C8        -80.2994   28.3925  -71.6138 C.3       11 UNK         0.0289 
      9 C9        -79.1425   29.2475  -72.1066 C.ar      11 UNK        -0.0687 
     10 C10       -79.3541   30.1888  -73.1167 C.ar      11 UNK        -0.0823 
     11 C11       -78.3037   30.9878  -73.5770 C.ar      11 UNK        -0.0830 
     12 C12       -77.0376   30.8598  -72.9985 C.ar      11 UNK        -0.1021 
     13 C13       -76.8156   29.9274  -71.9805 C.ar      11 UNK        -0.0753 
     14 C14       -77.8686   29.1166  -71.5446 C.ar      11 UNK        -0.0933 
     15 C15       -75.4468   29.8209  -71.3293 C.3       11 UNK         0.0166 
     16 S16       -74.3725   28.6386  -72.1969 S.3       11 UNK        -0.2615 
     17 C17       -72.8458   28.8347  -71.2157 C.3       11 UNK        -0.0865 
     18 CA        -71.8285   29.7948  -71.8874 C.3       10 UNK         0.0862 
     19 C         -70.7079   30.2077  -70.8869 C.2       10 UNK         0.5551 
     20 N         -69.4432   29.8818  -71.1259 N.am      10 UNK        -0.7319 
     21 O         -70.9947   30.8432  -69.8755 O.2       10 UNK        -0.5018 
     22 N         -71.3366   29.2471  -73.1625 N.am      10 UNK        -0.4509 
     23 C         -70.7945   29.9640  -74.1561 C.2       10 UNK         0.4899 
     24 O         -70.7002   31.1917  -74.1383 O.2       10 UNK        -0.4839 
     25 CA        -70.2334   29.1900  -75.3663 C.3       9 UNK         0.0222 
     26 CB        -68.7016   29.3223  -75.4250 C.3       9 UNK        -0.1966 
     27 N         -70.5855   27.7656  -75.3557 N.am      9 UNK        -0.4218 
     28 C         -71.7512   27.2684  -75.7875 C.2       9 UNK         0.5020 
     29 O         -72.6363   27.9482  -76.3097 O.2       9 UNK        -0.5274 
     30 CA        -71.9530   25.7635  -75.5692 C.3       8 UNK         0.0270 
     31 CB        -72.2668   25.4612  -74.0920 C.3       8 UNK        -0.1976 
     32 N         -73.0604   25.2867  -76.3941 N.am      8 UNK        -0.4313 
     33 C         -73.0239   24.2060  -77.1819 C.2       8 UNK         0.5041 
     34 O         -72.0442   23.4643  -77.2782 O.2       8 UNK        -0.5577 
     35 CA        -74.2821   23.8711  -78.0017 C.3       7 UNK         0.0284 
     36 CB        -75.1364   22.8193  -77.2760 C.3       7 UNK        -0.1958 
     37 N         -75.1156   25.0305  -78.3245 N.am      7 UNK        -0.4454 
     38 C         -74.7947   25.9729  -79.2221 C.2       7 UNK         0.5089 
     39 O         -73.7294   25.9980  -79.8393 O.2       7 UNK        -0.5125 
     40 CA        -75.8480   27.0559  -79.4984 C.3       6 UNK         0.0408 
     41 CB        -76.8987   26.5373  -80.4940 C.3       6 UNK        -0.1791 
     42 N         -76.5178   27.4724  -78.2670 N.am      6 UNK        -0.4762 
     43 C         -76.2196   28.5787  -77.5703 C.2       6 UNK         0.5007 
     44 O         -75.3871   29.4098  -77.9353 O.2       6 UNK        -0.5032 
     45 CA        -76.9974   28.8105  -76.2529 C.3       5 UNK         0.0783 
     46 C46       -78.1888   29.7816  -76.4826 C.3       11 UNK        -0.0857 
     47 S47       -77.6872   31.5220  -76.2453 S.3       11 UNK        -0.2512 
     48 C48       -78.5446   31.9840  -74.7032 C.3       11 UNK         0.0225 
     49 N         -77.4276   27.5662  -75.6015 N.am      5 UNK        -0.4615 
     50 C         -76.5976   26.6167  -75.1456 C.2       4 UNK         0.5053 
     51 O         -75.3733   26.6859  -75.2140 O.2       4 UNK        -0.5105 
     52 CA        -77.2317   25.3348  -74.5789 C.3       4 UNK         0.0263 
     53 CB        -77.4212   25.4657  -73.0594 C.3       4 UNK        -0.1981 
     54 N         -78.4911   24.9224  -75.2205 N.am      4 UNK        -0.4224 
     55 C         -78.6621   24.7353  -76.5424 C.2       3 UNK         0.4895 
     56 O         -77.7820   24.9698  -77.3724 O.2       3 UNK        -0.5091 
     57 CA        -80.0200   24.2084  -77.0395 C.3       3 UNK         0.0250 
     58 CB        -79.8762   23.3049  -78.2807 C.3       3 UNK        -0.1996 
     59 N         -80.7450   23.4947  -75.9907 N.am      3 UNK        -0.4254 
     60 C         -82.0738   23.4629  -75.8435 C.2       2 UNK         0.5004 
     61 O         -82.8655   24.0184  -76.6059 O.2       2 UNK        -0.5226 
     62 CA        -82.6150   22.6954  -74.6229 C.3       2 UNK         0.0269 
     63 CB        -82.0026   21.2841  -74.4858 C.3       2 UNK        -0.1926 
     64 N         -82.4924   23.4631  -73.3752 N.am      2 UNK        -0.4687 
     65 C         -81.3669   23.9001  -72.7902 C.2       1 UNK         0.5165 
     66 O         -80.2338   23.6547  -73.2150 O.2       1 UNK        -0.5079 
     67 H67       -78.5622   24.0990  -68.2491 H         1 UNK         0.0900 
     68 H68       -77.8080   23.3127  -69.6392 H         1 UNK         0.0900 
     69 H69       -78.0390   25.0615  -69.6331 H         1 UNK         0.0900 
     70 H70       -79.7242   25.6670  -70.9698 H         1 UNK         0.2959 
     71 H71       -82.3113   24.3348  -70.9253 H         1 UNK         0.1079 
     72 H72       -82.9709   26.1523  -72.5214 H         1 UNK         0.0837 
     73 H73       -82.3312   26.7603  -71.0323 H         1 UNK         0.0837 
     74 H74       -81.1347   29.0381  -71.3382 H         1 UNK         0.0685 
     75 H75       -80.0161   27.8501  -70.7108 H         1 UNK         0.0685 
     76 H76       -80.3389   30.2852  -73.5534 H         1 UNK         0.1434 
     77 H77       -76.2238   31.4816  -73.3462 H         1 UNK         0.1329 
     78 H78       -77.6965   28.3945  -70.7582 H         1 UNK         0.1335 
     79 H79       -74.9663   30.8006  -71.3151 H         1 UNK         0.0680 
     80 H80       -75.5539   29.5153  -70.2873 H         1 UNK         0.0680 
     81 H81       -73.1154   29.1857  -70.2174 H         1 UNK         0.1032 
     82 H82       -72.3990   27.8500  -71.0681 H         1 UNK         0.1032 
     83 H83       -72.3606   30.7201  -72.1174 H         1 UNK         0.0461 
     84 H84       -68.7292   30.1598  -70.4711 H         1 UNK         0.3453 
     85 H85       -69.1964   29.3644  -71.9534 H         1 UNK         0.3453 
     86 H86       -71.3942   28.2466  -73.2673 H         1 UNK         0.2984 
     87 H87       -70.6458   29.6513  -76.2662 H         1 UNK         0.0554 
     88 H88       -68.4005   30.3700  -75.4717 H         1 UNK         0.0847 
     89 H89       -68.2946   28.8333  -76.3103 H         1 UNK         0.0847 
     90 H90       -68.2212   28.8855  -74.5487 H         1 UNK         0.0847 
     91 H91       -69.9053   27.1344  -74.9553 H         1 UNK         0.3141 
     92 H92       -71.0254   25.2595  -75.8488 H         1 UNK         0.0743 
     93 H93       -73.1543   25.9971  -73.7514 H         1 UNK         0.0784 
     94 H94       -72.4421   24.3966  -73.9362 H         1 UNK         0.0784 
     95 H95       -71.4403   25.7489  -73.4417 H         1 UNK         0.0784 
     96 H96       -73.8907   25.8739  -76.3681 H         1 UNK         0.3213 
     97 H97       -73.9446   23.4342  -78.9442 H         1 UNK         0.0855 
     98 H98       -75.4963   23.1855  -76.3155 H         1 UNK         0.0814 
     99 H99       -74.5591   21.9140  -77.0832 H         1 UNK         0.0814 
    100 H100      -76.0034   22.5308  -77.8708 H         1 UNK         0.0814 
    101 H101      -76.0397   25.0600  -77.8984 H         1 UNK         0.3105 
    102 H102      -75.3418   27.9060  -79.9604 H         1 UNK         0.0547 
    103 H103      -76.4292   26.2212  -81.4266 H         1 UNK         0.0837 
    104 H104      -77.4472   25.6813  -80.0985 H         1 UNK         0.0837 
    105 H105      -77.6234   27.3123  -80.7432 H         1 UNK         0.0837 
    106 H106      -77.1822   26.8146  -77.8724 H         1 UNK         0.3020 
    107 H107      -76.2921   29.2709  -75.5559 H         1 UNK         0.1245 
    108 H108      -79.0113   29.5574  -75.8036 H         1 UNK         0.0781 
    109 H109      -78.6179   29.6713  -77.4808 H         1 UNK         0.0781 
    110 H110      -79.6112   32.0832  -74.9113 H         1 UNK         0.0836 
    111 H111      -78.2033   32.9717  -74.3901 H         1 UNK         0.0836 
    112 H112      -78.4211   27.4222  -75.5013 H         1 UNK         0.3022 
    113 H113      -76.5172   24.5286  -74.7479 H         1 UNK         0.0747 
    114 H114      -77.7603   24.5296  -72.6163 H         1 UNK         0.0793 
    115 H115      -76.4816   25.7312  -72.5721 H         1 UNK         0.0793 
    116 H116      -78.1414   26.2428  -72.8099 H         1 UNK         0.0793 
    117 H117      -79.2512   24.6928  -74.5873 H         1 UNK         0.3047 
    118 H118      -80.5922   25.0937  -77.3248 H         1 UNK         0.0822 
    119 H119      -80.8481   22.9717  -78.6450 H         1 UNK         0.0807 
    120 H120      -79.2776   22.4198  -78.0633 H         1 UNK         0.0807 
    121 H121      -79.3920   23.8345  -79.1023 H         1 UNK         0.0807 
    122 H122      -80.1857   23.0643  -75.2632 H         1 UNK         0.2946 
    123 H123      -83.6847   22.5634  -74.7965 H         1 UNK         0.1144 
    124 H124      -82.5055   20.7148  -73.7042 H         1 UNK         0.0793 
    125 H125      -80.9402   21.3060  -74.2433 H         1 UNK         0.0793 
    126 H126      -82.1119   20.7215  -75.4140 H         1 UNK         0.0793 
    127 H127      -83.3734   23.7428  -72.9654 H         1 UNK         0.2896 
@<TRIPOS>BOND
     1    1    2 1    
     2    1   67 1    
     3    1   68 1    
     4    1   69 1    
     5    2    3 2    
     6    2    4 am   BACKBONE|DICT|INTERRES
     7    4    5 1    
     8    4   70 1    
     9    5    6 1    
    10    5   65 1    
    11    5   71 1    
    12    6    7 1    
    13    6   72 1    
    14    6   73 1    
    15    7    8 1    
    16    8    9 1    
    17    8   74 1    
    18    8   75 1    
    19    9   10 ar   
    20    9   14 ar   
    21   10   11 ar   
    22   10   76 1    
    23   11   12 ar   
    24   11   48 1    
    25   12   13 ar   
    26   12   77 1    
    27   13   14 ar   
    28   13   15 1    
    29   14   78 1    
    30   15   16 1    
    31   15   79 1    
    32   15   80 1    
    33   16   17 1    
    34   17   18 1    
    35   17   81 1    
    36   17   82 1    
    37   18   19 1    
    38   18   22 1    
    39   18   83 1    
    40   19   20 am   BACKBONE|DICT|INTERRES
    41   19   21 2    
    42   20   84 1    
    43   20   85 1    
    44   22   23 am   BACKBONE|DICT|INTERRES
    45   22   86 1    
    46   23   24 2    
    47   23   25 1    
    48   25   26 1    
    49   25   27 1    
    50   25   87 1    
    51   26   88 1    
    52   26   89 1    
    53   26   90 1    
    54   27   28 am   BACKBONE|DICT|INTERRES
    55   27   91 1    
    56   28   29 2    
    57   28   30 1    
    58   30   31 1    
    59   30   32 1    
    60   30   92 1    
    61   31   93 1    
    62   31   94 1    
    63   31   95 1    
    64   32   33 am   BACKBONE|DICT|INTERRES
    65   32   96 1    
    66   33   34 2    
    67   33   35 1    
    68   35   36 1    
    69   35   37 1    
    70   35   97 1    
    71   36   98 1    
    72   36   99 1    
    73   36  100 1    
    74   37   38 am   BACKBONE|DICT|INTERRES
    75   37  101 1    
    76   38   39 2    
    77   38   40 1    
    78   40   41 1    
    79   40   42 1    
    80   40  102 1    
    81   41  103 1    
    82   41  104 1    
    83   41  105 1    
    84   42   43 am   BACKBONE|DICT|INTERRES
    85   42  106 1    
    86   43   44 2    
    87   43   45 1    
    88   45   46 1    
    89   45   49 1    
    90   45  107 1    
    91   46   47 1    
    92   46  108 1    
    93   46  109 1    
    94   47   48 1    
    95   48  110 1    
    96   48  111 1    
    97   49   50 am   BACKBONE|DICT|INTERRES
    98   49  112 1    
    99   50   51 2    
   100   50   52 1    
   101   52   53 1    
   102   52   54 1    
   103   52  113 1    
   104   53  114 1    
   105   53  115 1    
   106   53  116 1    
   107   54   55 am   BACKBONE|DICT|INTERRES
   108   54  117 1    
   109   55   56 2    
   110   55   57 1    
   111   57   58 1    
   112   57   59 1    
   113   57  118 1    
   114   58  119 1    
   115   58  120 1    
   116   58  121 1    
   117   59   60 am   BACKBONE|DICT|INTERRES
   118   59  122 1    
   119   60   61 2    
   120   60   62 1    
   121   62   63 1    
   122   62   64 1    
   123   62  123 1    
   124   63  124 1    
   125   63  125 1    
   126   63  126 1    
   127   64   65 am   BACKBONE|DICT|INTERRES
   128   64  127 1    
   129   65   66 2    
@<TRIPOS>SUBSTRUCTURE
     1 UNK         1 GROUP             0       ****    0 ROOT    
