@<TRIPOS>MOLECULE
3R135
127   129    1
SMALL
USER_CHARGES


@<TRIPOS>ATOM
      1 CA        -80.9955   22.3646  -71.5384 C.3       0 UNK        -0.1998 
      2 C         -81.5584   23.4773  -72.4087 C.2       0 UNK         0.4909 
      3 O         -81.8747   23.2401  -73.5753 O.2       0 UNK        -0.5240 
      4 N         -81.6838   24.6896  -71.8511 N.am      1 UNK        -0.4739 
      5 CA        -82.1282   25.9041  -72.5426 C.3       1 UNK         0.0864 
      6 C6        -82.2925   27.1409  -71.6077 C.3       11 UNK        -0.0881 
      7 S7        -81.2001   27.3616  -70.1445 S.3       11 UNK        -0.2682 
      8 C8        -79.5229   26.7963  -70.5993 C.3       11 UNK         0.0289 
      9 C9        -78.6085   27.8554  -71.2129 C.ar      11 UNK        -0.0687 
     10 C10       -79.0870   28.8586  -72.0637 C.ar      11 UNK        -0.0823 
     11 C11       -78.2110   29.7769  -72.6517 C.ar      11 UNK        -0.0830 
     12 C12       -76.8424   29.6877  -72.3832 C.ar      11 UNK        -0.1021 
     13 C13       -76.3466   28.6834  -71.5467 C.ar      11 UNK        -0.0753 
     14 C14       -77.2349   27.7781  -70.9619 C.ar      11 UNK        -0.0933 
     15 C15       -74.8498   28.5372  -71.3210 C.3       11 UNK         0.0166 
     16 S16       -74.1117   30.0421  -70.6091 S.3       11 UNK        -0.2615 
     17 C17       -72.3339   29.6399  -70.7045 C.3       11 UNK        -0.0865 
     18 CA        -71.6622   30.2263  -71.9738 C.3       10 UNK         0.0862 
     19 C         -70.1240   30.0336  -71.9222 C.2       10 UNK         0.5551 
     20 N         -69.3677   31.0987  -71.6963 N.am      10 UNK        -0.7319 
     21 O         -69.6197   28.9184  -72.0357 O.2       10 UNK        -0.5018 
     22 N         -72.2337   29.6401  -73.1915 N.am      10 UNK        -0.4509 
     23 C         -72.1129   30.1337  -74.4283 C.2       10 UNK         0.4899 
     24 O         -71.5317   31.1876  -74.6920 O.2       10 UNK        -0.4839 
     25 CA        -72.7849   29.3133  -75.5498 C.3       9 UNK         0.0222 
     26 CB        -72.2729   29.6874  -76.9572 C.3       9 UNK        -0.1966 
     27 N         -72.7156   27.8591  -75.3389 N.am      9 UNK        -0.4218 
     28 C         -71.6008   27.1180  -75.2298 C.2       9 UNK         0.5020 
     29 O         -70.4560   27.5632  -75.3153 O.2       9 UNK        -0.5274 
     30 CA        -71.8006   25.6189  -74.9850 C.3       8 UNK         0.0270 
     31 CB        -72.2015   25.3501  -73.5230 C.3       8 UNK        -0.1976 
     32 N         -72.8091   25.0687  -75.8927 N.am      8 UNK        -0.4313 
     33 C         -72.5228   24.4926  -77.0668 C.2       8 UNK         0.5041 
     34 O         -71.3801   24.3724  -77.5121 O.2       8 UNK        -0.5577 
     35 CA        -73.6976   23.9146  -77.8694 C.3       7 UNK         0.0284 
     36 CB        -74.1771   22.5942  -77.2440 C.3       7 UNK        -0.1958 
     37 N         -74.8290   24.8328  -78.0268 N.am      7 UNK        -0.4454 
     38 C         -74.8225   25.8983  -78.8419 C.2       7 UNK         0.5089 
     39 O         -73.8260   26.2909  -79.4494 O.2       7 UNK        -0.5125 
     40 CA        -76.1625   26.6243  -79.0547 C.3       6 UNK         0.0408 
     41 CB        -77.1201   25.7709  -79.9025 C.3       6 UNK        -0.1791 
     42 N         -76.8094   26.9771  -77.7938 N.am      6 UNK        -0.4762 
     43 C         -76.4393   28.0013  -77.0132 C.2       6 UNK         0.5007 
     44 O         -75.5738   28.8165  -77.3275 O.2       6 UNK        -0.5032 
     45 CA        -77.1239   28.1118  -75.6332 C.3       5 UNK         0.0783 
     46 C46       -78.4150   28.9699  -75.6921 C.3       11 UNK        -0.0857 
     47 S47       -78.0753   30.7147  -75.2850 S.3       11 UNK        -0.2512 
     48 C48       -78.7460   30.8514  -73.5920 C.3       11 UNK         0.0225 
     49 N         -77.3596   26.8009  -75.0213 N.am      5 UNK        -0.4615 
     50 C         -76.3912   25.9296  -74.7085 C.2       4 UNK         0.5053 
     51 O         -75.1893   26.1670  -74.8388 O.2       4 UNK        -0.5105 
     52 CA        -76.8346   24.5415  -74.2241 C.3       4 UNK         0.0263 
     53 CB        -77.0088   24.5264  -72.7009 C.3       4 UNK        -0.1981 
     54 N         -78.0736   24.1055  -74.8740 N.am      4 UNK        -0.4224 
     55 C         -78.1436   23.7119  -76.1539 C.2       3 UNK         0.4895 
     56 O         -77.1683   23.6364  -76.8997 O.2       3 UNK        -0.5091 
     57 CA        -79.5414   23.4081  -76.7144 C.3       3 UNK         0.0250 
     58 CB        -80.0337   22.0303  -76.2449 C.3       3 UNK        -0.1996 
     59 N         -80.5170   24.4424  -76.3612 N.am      3 UNK        -0.4254 
     60 C         -80.4501   25.7105  -76.7966 C.2       2 UNK         0.5004 
     61 O         -79.5876   26.1175  -77.5735 O.2       2 UNK        -0.5226 
     62 CA        -81.4908   26.7117  -76.2643 C.3       2 UNK         0.0269 
     63 CB        -82.6542   26.8462  -77.2595 C.3       2 UNK        -0.1926 
     64 N         -82.0279   26.4043  -74.9351 N.am      2 UNK        -0.4687 
     65 C         -81.3114   26.2171  -73.8170 C.2       1 UNK         0.5165 
     66 O         -80.0793   26.2549  -73.7805 O.2       1 UNK        -0.5079 
     67 H67       -80.0825   21.9688  -71.9823 H         1 UNK         0.0900 
     68 H68       -81.7161   21.5514  -71.4575 H         1 UNK         0.0900 
     69 H69       -80.7608   22.7125  -70.5326 H         1 UNK         0.0900 
     70 H70       -81.4182   24.8238  -70.8861 H         1 UNK         0.2959 
     71 H71       -83.1344   25.6587  -72.8910 H         1 UNK         0.1079 
     72 H72       -82.2862   28.0687  -72.1825 H         1 UNK         0.0837 
     73 H73       -83.3010   27.1019  -71.1924 H         1 UNK         0.0837 
     74 H74       -79.5634   25.9391  -71.2617 H         1 UNK         0.0685 
     75 H75       -79.0655   26.4289  -69.6795 H         1 UNK         0.0685 
     76 H76       -80.1410   28.9152  -72.2869 H         1 UNK         0.1434 
     77 H77       -76.1587   30.3868  -72.8455 H         1 UNK         0.1329 
     78 H78       -76.8519   26.9912  -70.3266 H         1 UNK         0.1335 
     79 H79       -74.3865   28.3042  -72.2790 H         1 UNK         0.0680 
     80 H80       -74.6354   27.6950  -70.6611 H         1 UNK         0.0680 
     81 H81       -71.8631   30.0493  -69.8085 H         1 UNK         0.1032 
     82 H82       -72.1912   28.5588  -70.6478 H         1 UNK         0.1032 
     83 H83       -71.8729   31.2979  -71.9964 H         1 UNK         0.0461 
     84 H84       -68.3671   30.9876  -71.6421 H         1 UNK         0.3453 
     85 H85       -69.7760   32.0152  -71.5963 H         1 UNK         0.3453 
     86 H86       -72.6870   28.7479  -73.0807 H         1 UNK         0.2984 
     87 H87       -73.8424   29.5736  -75.5039 H         1 UNK         0.0554 
     88 H88       -72.4612   30.7393  -77.1750 H         1 UNK         0.0847 
     89 H89       -72.7769   29.1043  -77.7284 H         1 UNK         0.0847 
     90 H90       -71.2000   29.5207  -77.0568 H         1 UNK         0.0847 
     91 H91       -73.6071   27.3806  -75.2478 H         1 UNK         0.3141 
     92 H92       -70.8425   25.1224  -75.1551 H         1 UNK         0.0743 
     93 H93       -71.4387   25.7237  -72.8384 H         1 UNK         0.0784 
     94 H94       -73.1412   25.8321  -73.2534 H         1 UNK         0.0784 
     95 H95       -72.3096   24.2819  -73.3344 H         1 UNK         0.0784 
     96 H96       -73.7809   25.1986  -75.6229 H         1 UNK         0.3213 
     97 H97       -73.3221   23.6832  -78.8690 H         1 UNK         0.0855 
     98 H98       -74.5955   22.7447  -76.2485 H         1 UNK         0.0814 
     99 H99       -73.3537   21.8850  -77.1481 H         1 UNK         0.0814 
    100 H100      -74.9422   22.1198  -77.8588 H         1 UNK         0.0814 
    101 H101      -75.7045   24.5520  -77.5888 H         1 UNK         0.3105 
    102 H102      -75.9611   27.5434  -79.6093 H         1 UNK         0.0547 
    103 H103      -77.4006   24.8468  -79.3958 H         1 UNK         0.0837 
    104 H104      -78.0374   26.3148  -80.1284 H         1 UNK         0.0837 
    105 H105      -76.6620   25.4970  -80.8537 H         1 UNK         0.0837 
    106 H106      -77.5949   26.4023  -77.5038 H         1 UNK         0.3020 
    107 H107      -76.4029   28.6055  -74.9782 H         1 UNK         0.1245 
    108 H108      -79.1596   28.5965  -74.9887 H         1 UNK         0.0781 
    109 H109      -78.8950   28.9200  -76.6715 H         1 UNK         0.0781 
    110 H110      -78.4941   31.8337  -73.1902 H         1 UNK         0.0836 
    111 H111      -79.8352   30.8135  -73.6444 H         1 UNK         0.0836 
    112 H112      -78.3210   26.5538  -74.8130 H         1 UNK         0.3022 
    113 H113      -76.0438   23.8332  -74.4794 H         1 UNK         0.0747 
    114 H114      -76.0864   24.8223  -72.1991 H         1 UNK         0.0793 
    115 H115      -77.2750   23.5335  -72.3385 H         1 UNK         0.0793 
    116 H116      -77.7861   25.2198  -72.3892 H         1 UNK         0.0793 
    117 H117      -78.9322   24.2209  -74.3524 H         1 UNK         0.3047 
    118 H118      -79.4621   23.3849  -77.8036 H         1 UNK         0.0822 
    119 H119      -79.3434   21.2451  -76.5564 H         1 UNK         0.0807 
    120 H120      -81.0088   21.7909  -76.6693 H         1 UNK         0.0807 
    121 H121      -80.1184   21.9752  -75.1592 H         1 UNK         0.0807 
    122 H122      -81.2366   24.1904  -75.6952 H         1 UNK         0.2946 
    123 H123      -80.9958   27.6809  -76.1959 H         1 UNK         0.1144 
    124 H124      -82.2887   27.1012  -78.2555 H         1 UNK         0.0793 
    125 H125      -83.3453   27.6347  -76.9605 H         1 UNK         0.0793 
    126 H126      -83.2194   25.9175  -77.3480 H         1 UNK         0.0793 
    127 H127      -83.0338   26.3324  -74.8766 H         1 UNK         0.2896 
@<TRIPOS>BOND
     1    1    2 1    
     2    1   67 1    
     3    1   68 1    
     4    1   69 1    
     5    2    3 2    
     6    2    4 am   BACKBONE|DICT|INTERRES
     7    4    5 1    
     8    4   70 1    
     9    5    6 1    
    10    5   65 1    
    11    5   71 1    
    12    6    7 1    
    13    6   72 1    
    14    6   73 1    
    15    7    8 1    
    16    8    9 1    
    17    8   74 1    
    18    8   75 1    
    19    9   10 ar   
    20    9   14 ar   
    21   10   11 ar   
    22   10   76 1    
    23   11   12 ar   
    24   11   48 1    
    25   12   13 ar   
    26   12   77 1    
    27   13   14 ar   
    28   13   15 1    
    29   14   78 1    
    30   15   16 1    
    31   15   79 1    
    32   15   80 1    
    33   16   17 1    
    34   17   18 1    
    35   17   81 1    
    36   17   82 1    
    37   18   19 1    
    38   18   22 1    
    39   18   83 1    
    40   19   20 am   BACKBONE|DICT|INTERRES
    41   19   21 2    
    42   20   84 1    
    43   20   85 1    
    44   22   23 am   BACKBONE|DICT|INTERRES
    45   22   86 1    
    46   23   24 2    
    47   23   25 1    
    48   25   26 1    
    49   25   27 1    
    50   25   87 1    
    51   26   88 1    
    52   26   89 1    
    53   26   90 1    
    54   27   28 am   BACKBONE|DICT|INTERRES
    55   27   91 1    
    56   28   29 2    
    57   28   30 1    
    58   30   31 1    
    59   30   32 1    
    60   30   92 1    
    61   31   93 1    
    62   31   94 1    
    63   31   95 1    
    64   32   33 am   BACKBONE|DICT|INTERRES
    65   32   96 1    
    66   33   34 2    
    67   33   35 1    
    68   35   36 1    
    69   35   37 1    
    70   35   97 1    
    71   36   98 1    
    72   36   99 1    
    73   36  100 1    
    74   37   38 am   BACKBONE|DICT|INTERRES
    75   37  101 1    
    76   38   39 2    
    77   38   40 1    
    78   40   41 1    
    79   40   42 1    
    80   40  102 1    
    81   41  103 1    
    82   41  104 1    
    83   41  105 1    
    84   42   43 am   BACKBONE|DICT|INTERRES
    85   42  106 1    
    86   43   44 2    
    87   43   45 1    
    88   45   46 1    
    89   45   49 1    
    90   45  107 1    
    91   46   47 1    
    92   46  108 1    
    93   46  109 1    
    94   47   48 1    
    95   48  110 1    
    96   48  111 1    
    97   49   50 am   BACKBONE|DICT|INTERRES
    98   49  112 1    
    99   50   51 2    
   100   50   52 1    
   101   52   53 1    
   102   52   54 1    
   103   52  113 1    
   104   53  114 1    
   105   53  115 1    
   106   53  116 1    
   107   54   55 am   BACKBONE|DICT|INTERRES
   108   54  117 1    
   109   55   56 2    
   110   55   57 1    
   111   57   58 1    
   112   57   59 1    
   113   57  118 1    
   114   58  119 1    
   115   58  120 1    
   116   58  121 1    
   117   59   60 am   BACKBONE|DICT|INTERRES
   118   59  122 1    
   119   60   61 2    
   120   60   62 1    
   121   62   63 1    
   122   62   64 1    
   123   62  123 1    
   124   63  124 1    
   125   63  125 1    
   126   63  126 1    
   127   64   65 am   BACKBONE|DICT|INTERRES
   128   64  127 1    
   129   65   66 2    
@<TRIPOS>SUBSTRUCTURE
     1 UNK         1 GROUP             0       ****    0 ROOT    
