@<TRIPOS>MOLECULE
3R135
127   129    1
SMALL
USER_CHARGES


@<TRIPOS>ATOM
      1 CA        -85.2810   25.2509  -74.5220 C.3       0 UNK        -0.1998 
      2 C         -84.7520   26.6592  -74.2939 C.2       0 UNK         0.4909 
      3 O         -85.3417   27.6204  -74.7893 O.2       0 UNK        -0.5240 
      4 N         -83.6533   26.7827  -73.5394 N.am      1 UNK        -0.4739 
      5 CA        -82.9452   28.0352  -73.2621 C.3       1 UNK         0.0864 
      6 C6        -82.4114   28.0783  -71.8016 C.3       11 UNK        -0.0881 
      7 S7        -81.3426   26.6662  -71.3353 S.3       11 UNK        -0.2682 
      8 C8        -80.4011   27.3777  -69.9509 C.3       11 UNK         0.0289 
      9 C9        -78.9434   27.6267  -70.3130 C.ar      11 UNK        -0.0687 
     10 C10       -77.9989   26.6174  -70.0986 C.ar      11 UNK        -0.0823 
     11 C11       -76.6416   26.8534  -70.3311 C.ar      11 UNK        -0.0830 
     12 C12       -76.2332   28.1079  -70.7884 C.ar      11 UNK        -0.1021 
     13 C13       -77.1659   29.1183  -71.0353 C.ar      11 UNK        -0.0753 
     14 C14       -78.5238   28.8726  -70.7969 C.ar      11 UNK        -0.0933 
     15 C15       -76.6834   30.4945  -71.4781 C.3       11 UNK         0.0166 
     16 S16       -76.7727   30.7717  -73.2789 S.3       11 UNK        -0.2615 
     17 C17       -75.6994   29.4791  -74.0031 C.3       11 UNK        -0.0865 
     18 CA        -74.2089   29.9051  -74.1208 C.3       10 UNK         0.0862 
     19 C         -73.3837   29.4651  -72.8831 C.2       10 UNK         0.5551 
     20 N         -72.8785   28.2373  -72.8572 N.am      10 UNK        -0.7319 
     21 O         -73.1894   30.2402  -71.9512 O.2       10 UNK        -0.5018 
     22 N         -73.5927   29.4230  -75.3676 N.am      10 UNK        -0.4509 
     23 C         -72.6279   30.0858  -76.0200 C.2       10 UNK         0.4899 
     24 O         -72.2593   31.2257  -75.7296 O.2       10 UNK        -0.4839 
     25 CA        -71.9569   29.3356  -77.1856 C.3       9 UNK         0.0222 
     26 CB        -70.8684   30.1669  -77.8976 C.3       9 UNK        -0.1966 
     27 N         -71.4276   28.0288  -76.7793 N.am      9 UNK        -0.4218 
     28 C         -70.5162   27.7663  -75.8258 C.2       9 UNK         0.5020 
     29 O         -69.9420   28.6359  -75.1696 O.2       9 UNK        -0.5274 
     30 CA        -70.1785   26.2869  -75.5460 C.3       8 UNK         0.0270 
     31 CB        -70.3450   25.9441  -74.0545 C.3       8 UNK        -0.1976 
     32 N         -71.0125   25.3718  -76.3262 N.am      8 UNK        -0.4313 
     33 C         -70.6435   24.7573  -77.4582 C.2       8 UNK         0.5041 
     34 O         -69.5109   24.8197  -77.9372 O.2       8 UNK        -0.5577 
     35 CA        -71.7323   23.9568  -78.2002 C.3       7 UNK         0.0284 
     36 CB        -71.6466   22.4664  -77.8335 C.3       7 UNK        -0.1958 
     37 N         -73.0934   24.4416  -77.9414 N.am      7 UNK        -0.4454 
     38 C         -73.5513   25.6568  -78.2757 C.2       7 UNK         0.5089 
     39 O         -72.8881   26.4896  -78.8916 O.2       7 UNK        -0.5125 
     40 CA        -74.9515   26.0399  -77.7721 C.3       6 UNK         0.0408 
     41 CB        -76.0082   25.7586  -78.8488 C.3       6 UNK        -0.1791 
     42 N         -75.3248   25.3690  -76.5229 N.am      6 UNK        -0.4762 
     43 C         -74.7332   25.5671  -75.3341 C.2       6 UNK         0.5007 
     44 O         -73.7878   26.3465  -75.1732 O.2       6 UNK        -0.5032 
     45 CA        -75.2810   24.7570  -74.1413 C.3       5 UNK         0.0783 
     46 C46       -74.9615   25.4279  -72.7802 C.3       11 UNK        -0.0857 
     47 S47       -75.5716   24.4887  -71.3388 S.3       11 UNK        -0.2512 
     48 C48       -75.6089   25.7708  -70.0478 C.3       11 UNK         0.0225 
     49 N         -76.7141   24.5020  -74.3260 N.am      5 UNK        -0.4615 
     50 C         -77.3009   23.3042  -74.1951 C.2       4 UNK         0.5053 
     51 O         -76.6862   22.2606  -73.9726 O.2       4 UNK        -0.5105 
     52 CA        -78.8343   23.2451  -74.3243 C.3       4 UNK         0.0263 
     53 CB        -79.4826   23.3439  -72.9330 C.3       4 UNK        -0.1981 
     54 N         -79.4007   24.2852  -75.1830 N.am      4 UNK        -0.4224 
     55 C         -79.1698   24.4239  -76.4959 C.2       3 UNK         0.4895 
     56 O         -78.4744   23.6541  -77.1589 O.2       3 UNK        -0.5091 
     57 CA        -79.7952   25.6541  -77.1769 C.3       3 UNK         0.0250 
     58 CB        -81.1701   25.2963  -77.7636 C.3       3 UNK        -0.1996 
     59 N         -79.9397   26.8232  -76.3023 N.am      3 UNK        -0.4254 
     60 C         -78.9759   27.4200  -75.5876 C.2       2 UNK         0.5004 
     61 O         -77.8097   27.0307  -75.5463 O.2       2 UNK        -0.5226 
     62 CA        -79.3862   28.6252  -74.7297 C.3       2 UNK         0.0269 
     63 CB        -79.4450   29.9161  -75.5685 C.3       2 UNK        -0.1926 
     64 N         -80.6098   28.4241  -73.9427 N.am      2 UNK        -0.4687 
     65 C         -81.8780   28.2809  -74.3526 C.2       1 UNK         0.5165 
     66 O         -82.2132   28.3132  -75.5385 O.2       1 UNK        -0.5079 
     67 H67       -86.3033   25.1694  -74.1535 H         1 UNK         0.0900 
     68 H68       -85.2827   25.0194  -75.5868 H         1 UNK         0.0900 
     69 H69       -84.6765   24.5002  -74.0131 H         1 UNK         0.0900 
     70 H70       -83.2159   25.9558  -73.1572 H         1 UNK         0.2959 
     71 H71       -83.6485   28.8655  -73.3598 H         1 UNK         0.1079 
     72 H72       -81.8930   29.0208  -71.6140 H         1 UNK         0.0837 
     73 H73       -83.2600   28.0808  -71.1155 H         1 UNK         0.0837 
     74 H74       -80.4553   26.6853  -69.1092 H         1 UNK         0.0685 
     75 H75       -80.8666   28.2999  -69.6002 H         1 UNK         0.0685 
     76 H76       -78.3169   25.6527  -69.7267 H         1 UNK         0.1434 
     77 H77       -75.1811   28.3012  -70.9427 H         1 UNK         0.1329 
     78 H78       -79.2462   29.6618  -70.9545 H         1 UNK         0.1335 
     79 H79       -77.2867   31.2589  -70.9864 H         1 UNK         0.0680 
     80 H80       -75.6624   30.6665  -71.1376 H         1 UNK         0.0680 
     81 H81       -76.1027   29.2907  -74.9995 H         1 UNK         0.1032 
     82 H82       -75.8255   28.5339  -73.4781 H         1 UNK         0.1032 
     83 H83       -74.1852   30.9966  -74.1414 H         1 UNK         0.0461 
     84 H84       -73.0329   27.6048  -73.6302 H         1 UNK         0.3453 
     85 H85       -72.3217   27.9532  -72.0679 H         1 UNK         0.3453 
     86 H86       -73.7832   28.4610  -75.6198 H         1 UNK         0.2984 
     87 H87       -72.7438   29.1358  -77.9143 H         1 UNK         0.0554 
     88 H88       -71.2805   31.0998  -78.2841 H         1 UNK         0.0847 
     89 H89       -70.4467   29.6248  -78.7440 H         1 UNK         0.0847 
     90 H90       -70.0503   30.4276  -77.2253 H         1 UNK         0.0847 
     91 H91       -71.8103   27.2453  -77.2954 H         1 UNK         0.3141 
     92 H92       -69.1268   26.1506  -75.8061 H         1 UNK         0.0743 
     93 H93       -69.7574   26.6134  -73.4246 H         1 UNK         0.0784 
     94 H94       -71.3838   26.0201  -73.7350 H         1 UNK         0.0784 
     95 H95       -70.0076   24.9288  -73.8453 H         1 UNK         0.0784 
     96 H96       -71.9729   25.2847  -76.0189 H         1 UNK         0.3213 
     97 H97       -71.5397   24.0600  -79.2704 H         1 UNK         0.0855 
     98 H98       -71.8496   22.2968  -76.7753 H         1 UNK         0.0814 
     99 H99       -70.6511   22.0711  -78.0410 H         1 UNK         0.0814 
    100 H100      -72.3546   21.8729  -78.4124 H         1 UNK         0.0814 
    101 H101      -73.7152   23.8213  -77.4433 H         1 UNK         0.3105 
    102 H102      -74.9442   27.1153  -77.5814 H         1 UNK         0.0547 
    103 H103      -76.9663   26.1940  -78.5722 H         1 UNK         0.0837 
    104 H104      -76.1540   24.6897  -79.0090 H         1 UNK         0.0837 
    105 H105      -75.7227   26.1987  -79.8054 H         1 UNK         0.0837 
    106 H106      -76.1132   24.7367  -76.5638 H         1 UNK         0.3020 
    107 H107      -74.7355   23.8113  -74.1720 H         1 UNK         0.1245 
    108 H108      -75.3923   26.4263  -72.7602 H         1 UNK         0.0781 
    109 H109      -73.8845   25.5508  -72.6548 H         1 UNK         0.0781 
    110 H110      -74.6122   26.2029  -69.9439 H         1 UNK         0.0836 
    111 H111      -75.8347   25.2988  -69.0905 H         1 UNK         0.0836 
    112 H112      -77.2738   25.3135  -74.5705 H         1 UNK         0.3022 
    113 H113      -79.0917   22.2772  -74.7596 H         1 UNK         0.0747 
    114 H114      -80.5653   23.2289  -72.9869 H         1 UNK         0.0793 
    115 H115      -79.1074   22.5616  -72.2716 H         1 UNK         0.0793 
    116 H116      -79.2688   24.3015  -72.4551 H         1 UNK         0.0793 
    117 H117      -79.9794   24.9779  -74.7318 H         1 UNK         0.3047 
    118 H118      -79.1414   25.9437  -77.9995 H         1 UNK         0.0822 
    119 H119      -81.5845   26.1255  -78.3374 H         1 UNK         0.0807 
    120 H120      -81.8874   25.0381  -76.9833 H         1 UNK         0.0807 
    121 H121      -81.0980   24.4417  -78.4381 H         1 UNK         0.0807 
    122 H122      -80.8652   27.2420  -76.2457 H         1 UNK         0.2946 
    123 H123      -78.5954   28.7423  -73.9896 H         1 UNK         0.1144 
    124 H124      -80.2093   29.8703  -76.3445 H         1 UNK         0.0793 
    125 H125      -78.4908   30.0982  -76.0649 H         1 UNK         0.0793 
    126 H126      -79.6524   30.7837  -74.9422 H         1 UNK         0.0793 
    127 H127      -80.4502   28.2933  -72.9517 H         1 UNK         0.2896 
@<TRIPOS>BOND
     1    1    2 1    
     2    1   67 1    
     3    1   68 1    
     4    1   69 1    
     5    2    3 2    
     6    2    4 am   BACKBONE|DICT|INTERRES
     7    4    5 1    
     8    4   70 1    
     9    5    6 1    
    10    5   65 1    
    11    5   71 1    
    12    6    7 1    
    13    6   72 1    
    14    6   73 1    
    15    7    8 1    
    16    8    9 1    
    17    8   74 1    
    18    8   75 1    
    19    9   10 ar   
    20    9   14 ar   
    21   10   11 ar   
    22   10   76 1    
    23   11   12 ar   
    24   11   48 1    
    25   12   13 ar   
    26   12   77 1    
    27   13   14 ar   
    28   13   15 1    
    29   14   78 1    
    30   15   16 1    
    31   15   79 1    
    32   15   80 1    
    33   16   17 1    
    34   17   18 1    
    35   17   81 1    
    36   17   82 1    
    37   18   19 1    
    38   18   22 1    
    39   18   83 1    
    40   19   20 am   BACKBONE|DICT|INTERRES
    41   19   21 2    
    42   20   84 1    
    43   20   85 1    
    44   22   23 am   BACKBONE|DICT|INTERRES
    45   22   86 1    
    46   23   24 2    
    47   23   25 1    
    48   25   26 1    
    49   25   27 1    
    50   25   87 1    
    51   26   88 1    
    52   26   89 1    
    53   26   90 1    
    54   27   28 am   BACKBONE|DICT|INTERRES
    55   27   91 1    
    56   28   29 2    
    57   28   30 1    
    58   30   31 1    
    59   30   32 1    
    60   30   92 1    
    61   31   93 1    
    62   31   94 1    
    63   31   95 1    
    64   32   33 am   BACKBONE|DICT|INTERRES
    65   32   96 1    
    66   33   34 2    
    67   33   35 1    
    68   35   36 1    
    69   35   37 1    
    70   35   97 1    
    71   36   98 1    
    72   36   99 1    
    73   36  100 1    
    74   37   38 am   BACKBONE|DICT|INTERRES
    75   37  101 1    
    76   38   39 2    
    77   38   40 1    
    78   40   41 1    
    79   40   42 1    
    80   40  102 1    
    81   41  103 1    
    82   41  104 1    
    83   41  105 1    
    84   42   43 am   BACKBONE|DICT|INTERRES
    85   42  106 1    
    86   43   44 2    
    87   43   45 1    
    88   45   46 1    
    89   45   49 1    
    90   45  107 1    
    91   46   47 1    
    92   46  108 1    
    93   46  109 1    
    94   47   48 1    
    95   48  110 1    
    96   48  111 1    
    97   49   50 am   BACKBONE|DICT|INTERRES
    98   49  112 1    
    99   50   51 2    
   100   50   52 1    
   101   52   53 1    
   102   52   54 1    
   103   52  113 1    
   104   53  114 1    
   105   53  115 1    
   106   53  116 1    
   107   54   55 am   BACKBONE|DICT|INTERRES
   108   54  117 1    
   109   55   56 2    
   110   55   57 1    
   111   57   58 1    
   112   57   59 1    
   113   57  118 1    
   114   58  119 1    
   115   58  120 1    
   116   58  121 1    
   117   59   60 am   BACKBONE|DICT|INTERRES
   118   59  122 1    
   119   60   61 2    
   120   60   62 1    
   121   62   63 1    
   122   62   64 1    
   123   62  123 1    
   124   63  124 1    
   125   63  125 1    
   126   63  126 1    
   127   64   65 am   BACKBONE|DICT|INTERRES
   128   64  127 1    
   129   65   66 2    
@<TRIPOS>SUBSTRUCTURE
     1 UNK         1 GROUP             0       ****    0 ROOT    
