@<TRIPOS>MOLECULE
3R135
127   129    1
SMALL
USER_CHARGES


@<TRIPOS>ATOM
      1 CA        -82.8327   25.0234  -73.0610 C.3       0 UNK        -0.1998 
      2 C         -81.8322   25.4942  -72.0090 C.2       0 UNK         0.4909 
      3 O         -81.6366   24.8038  -71.0110 O.2       0 UNK        -0.5240 
      4 N         -81.1857   26.6561  -72.1676 N.am      1 UNK        -0.4739 
      5 CA        -81.2563   27.5777  -73.3031 C.3       1 UNK         0.0864 
      6 C6        -81.4284   29.0488  -72.8207 C.3       11 UNK        -0.0881 
      7 S7        -79.9460   29.9079  -72.1813 S.3       11 UNK        -0.2682 
      8 C8        -79.7761   29.2778  -70.4811 C.3       11 UNK         0.0289 
      9 C9        -78.4076   28.6374  -70.3087 C.ar      11 UNK        -0.0687 
     10 C10       -78.2620   27.2475  -70.2627 C.ar      11 UNK        -0.0823 
     11 C11       -76.9903   26.6686  -70.1991 C.ar      11 UNK        -0.0830 
     12 C12       -75.8608   27.4914  -70.1506 C.ar      11 UNK        -0.1021 
     13 C13       -75.9970   28.8823  -70.1666 C.ar      11 UNK        -0.0753 
     14 C14       -77.2718   29.4485  -70.2381 C.ar      11 UNK        -0.0933 
     15 C15       -74.7668   29.7742  -70.1222 C.3       11 UNK         0.0166 
     16 S16       -74.0053   29.9438  -71.7643 S.3       11 UNK        -0.2615 
     17 C17       -75.2411   30.9649  -72.6451 C.3       11 UNK        -0.0865 
     18 CA        -74.8177   31.3234  -74.0931 C.3       10 UNK         0.0862 
     19 C         -73.6407   32.3461  -74.1213 C.2       10 UNK         0.5551 
     20 N         -72.4545   31.9923  -74.6047 N.am      10 UNK        -0.7319 
     21 O         -73.8161   33.4883  -73.7040 O.2       10 UNK        -0.5018 
     22 N         -74.6088   30.1090  -74.8920 N.am      10 UNK        -0.4509 
     23 C         -74.5217   30.0621  -76.2263 C.2       10 UNK         0.4899 
     24 O         -74.7491   31.0255  -76.9593 O.2       10 UNK        -0.4839 
     25 CA        -74.1116   28.7080  -76.8397 C.3       9 UNK         0.0222 
     26 CB        -73.4166   28.8659  -78.2075 C.3       9 UNK        -0.1966 
     27 N         -73.3005   27.8717  -75.9436 N.am      9 UNK        -0.4218 
     28 C         -72.1141   28.1681  -75.3862 C.2       9 UNK         0.5020 
     29 O         -71.5378   29.2476  -75.5276 O.2       9 UNK        -0.5274 
     30 CA        -71.4683   27.0818  -74.5112 C.3       8 UNK         0.0270 
     31 CB        -72.0194   27.1435  -73.0775 C.3       8 UNK        -0.1976 
     32 N         -71.7097   25.7479  -75.0629 N.am      8 UNK        -0.4313 
     33 C         -70.8250   25.0445  -75.7834 C.2       8 UNK         0.5041 
     34 O         -69.6636   25.4006  -75.9874 O.2       8 UNK        -0.5577 
     35 CA        -71.3191   23.7176  -76.3921 C.3       7 UNK         0.0284 
     36 CB        -71.0435   22.5484  -75.4328 C.3       7 UNK        -0.1958 
     37 N         -72.7446   23.7435  -76.7302 N.am      7 UNK        -0.4454 
     38 C         -73.2842   24.5090  -77.6891 C.2       7 UNK         0.5089 
     39 O         -72.6206   25.1748  -78.4835 O.2       7 UNK        -0.5125 
     40 CA        -74.8204   24.5713  -77.7619 C.3       6 UNK         0.0408 
     41 CB        -75.3422   23.7522  -78.9524 C.3       6 UNK        -0.1791 
     42 N         -75.5214   24.1413  -76.5462 N.am      6 UNK        -0.4762 
     43 C         -75.4566   24.7196  -75.3381 C.2       6 UNK         0.5007 
     44 O         -74.6624   25.6230  -75.0692 O.2       6 UNK        -0.5032 
     45 CA        -76.4327   24.1957  -74.2606 C.3       5 UNK         0.0783 
     46 C46       -76.4636   25.0917  -72.9950 C.3       11 UNK        -0.0857 
     47 S47       -77.5226   24.3806  -71.6888 S.3       11 UNK        -0.2512 
     48 C48       -76.8374   25.1535  -70.1880 C.3       11 UNK         0.0225 
     49 N         -77.7773   24.0097  -74.8171 N.am      5 UNK        -0.4615 
     50 C         -78.2009   22.9380  -75.4976 C.2       4 UNK         0.5053 
     51 O         -77.4788   21.9825  -75.7816 O.2       4 UNK        -0.5105 
     52 CA        -79.6534   22.9652  -75.9837 C.3       4 UNK         0.0263 
     53 CB        -80.6207   22.7431  -74.8099 C.3       4 UNK        -0.1981 
     54 N         -79.9430   24.2420  -76.6378 N.am      4 UNK        -0.4224 
     55 C         -79.7846   24.4711  -77.9499 C.2       3 UNK         0.4895 
     56 O         -79.4460   23.6081  -78.7604 O.2       3 UNK        -0.5091 
     57 CA        -80.0534   25.9009  -78.4554 C.3       3 UNK         0.0250 
     58 CB        -81.5113   26.0389  -78.9231 C.3       3 UNK        -0.1996 
     59 N         -79.7684   26.9307  -77.4542 N.am      3 UNK        -0.4254 
     60 C         -78.5388   27.2697  -77.0424 C.2       2 UNK         0.5004 
     61 O         -77.5051   26.8132  -77.5271 O.2       2 UNK        -0.5226 
     62 CA        -78.4402   28.2762  -75.8821 C.3       2 UNK         0.0269 
     63 CB        -78.1671   29.6894  -76.4208 C.3       2 UNK        -0.1926 
     64 N         -79.6122   28.3224  -74.9968 N.am      2 UNK        -0.4687 
     65 C         -80.0789   27.2982  -74.2685 C.2       1 UNK         0.5165 
     66 O         -79.6346   26.1512  -74.3704 O.2       1 UNK        -0.5079 
     67 H67       -83.1383   23.9961  -72.8635 H         1 UNK         0.0900 
     68 H68       -83.7261   25.6471  -73.0443 H         1 UNK         0.0900 
     69 H69       -82.4024   25.0504  -74.0612 H         1 UNK         0.0900 
     70 H70       -80.4935   26.9079  -71.4807 H         1 UNK         0.2959 
     71 H71       -82.1509   27.3607  -73.8875 H         1 UNK         0.1079 
     72 H72       -82.2123   29.1006  -72.0629 H         1 UNK         0.0837 
     73 H73       -81.8078   29.6524  -73.6471 H         1 UNK         0.0837 
     74 H74       -80.5742   28.5747  -70.2413 H         1 UNK         0.0685 
     75 H75       -79.8822   30.1087  -69.7822 H         1 UNK         0.0685 
     76 H76       -79.1289   26.6040  -70.2980 H         1 UNK         0.1434 
     77 H77       -74.8727   27.0536  -70.1077 H         1 UNK         0.1329 
     78 H78       -77.3813   30.5239  -70.2734 H         1 UNK         0.1335 
     79 H79       -74.0327   29.3491  -69.4361 H         1 UNK         0.0680 
     80 H80       -75.0157   30.7615  -69.7299 H         1 UNK         0.0680 
     81 H81       -75.4406   31.8686  -72.0661 H         1 UNK         0.1032 
     82 H82       -76.1845   30.4175  -72.6755 H         1 UNK         0.1032 
     83 H83       -75.6630   31.8455  -74.5456 H         1 UNK         0.0461 
     84 H84       -72.2875   31.0498  -74.9401 H         1 UNK         0.3453 
     85 H85       -71.7075   32.6677  -74.6187 H         1 UNK         0.3453 
     86 H86       -74.3836   29.2785  -74.3648 H         1 UNK         0.2984 
     87 H87       -75.0395   28.1580  -77.0026 H         1 UNK         0.0554 
     88 H88       -74.0685   29.3660  -78.9247 H         1 UNK         0.0847 
     89 H89       -73.1547   27.8974  -78.6331 H         1 UNK         0.0847 
     90 H90       -72.5031   29.4564  -78.1300 H         1 UNK         0.0847 
     91 H91       -73.7359   26.9872  -75.6844 H         1 UNK         0.3141 
     92 H92       -70.3957   27.2824  -74.4678 H         1 UNK         0.0743 
     93 H93       -71.5656   26.3798  -72.4459 H         1 UNK         0.0784 
     94 H94       -71.7990   28.1094  -72.6220 H         1 UNK         0.0784 
     95 H95       -73.1010   27.0038  -73.0466 H         1 UNK         0.0784 
     96 H96       -72.6551   25.3916  -74.9773 H         1 UNK         0.3213 
     97 H97       -70.7563   23.5470  -77.3126 H         1 UNK         0.0855 
     98 H98       -71.5916   22.6541  -74.4957 H         1 UNK         0.0814 
     99 H99       -69.9827   22.4916  -75.1843 H         1 UNK         0.0814 
    100 H100      -71.3207   21.5935  -75.8799 H         1 UNK         0.0814 
    101 H101      -73.3695   23.2077  -76.1459 H         1 UNK         0.3105 
    102 H102      -75.0824   25.6174  -77.9317 H         1 UNK         0.0547 
    103 H103      -75.1442   22.6870  -78.8276 H         1 UNK         0.0837 
    104 H104      -74.8673   24.0667  -79.8828 H         1 UNK         0.0837 
    105 H105      -76.4174   23.8828  -79.0805 H         1 UNK         0.0837 
    106 H106      -76.1806   23.3783  -76.6520 H         1 UNK         0.3020 
    107 H107      -76.0472   23.2197  -73.9567 H         1 UNK         0.1245 
    108 H108      -76.8312   26.0916  -73.2349 H         1 UNK         0.0781 
    109 H109      -75.4576   25.2196  -72.5904 H         1 UNK         0.0781 
    110 H110      -75.7907   24.8639  -70.0830 H         1 UNK         0.0836 
    111 H111      -77.3556   24.7514  -69.3165 H         1 UNK         0.0836 
    112 H112      -78.4350   24.7631  -74.6301 H         1 UNK         0.3022 
    113 H113      -79.7931   22.1462  -76.6929 H         1 UNK         0.0747 
    114 H114      -81.6594   22.7781  -75.1386 H         1 UNK         0.0793 
    115 H115      -80.4579   21.7654  -74.3546 H         1 UNK         0.0793 
    116 H116      -80.4869   23.4888  -74.0258 H         1 UNK         0.0793 
    117 H117      -80.1457   25.0247  -76.0276 H         1 UNK         0.3047 
    118 H118      -79.4007   26.0728  -79.3143 H         1 UNK         0.0822 
    119 H119      -81.6985   27.0223  -79.3550 H         1 UNK         0.0807 
    120 H120      -82.2160   25.8909  -78.1037 H         1 UNK         0.0807 
    121 H121      -81.7454   25.3003  -79.6911 H         1 UNK         0.0807 
    122 H122      -80.5589   27.3801  -77.0162 H         1 UNK         0.2946 
    123 H123      -77.5841   27.9684  -75.2767 H         1 UNK         0.1144 
    124 H124      -77.9031   30.3762  -75.6162 H         1 UNK         0.0793 
    125 H125      -79.0339   30.0968  -76.9425 H         1 UNK         0.0793 
    126 H126      -77.3377   29.6882  -77.1290 H         1 UNK         0.0793 
    127 H127      -80.0171   29.2352  -74.8429 H         1 UNK         0.2896 
@<TRIPOS>BOND
     1    1    2 1    
     2    1   67 1    
     3    1   68 1    
     4    1   69 1    
     5    2    3 2    
     6    2    4 am   BACKBONE|DICT|INTERRES
     7    4    5 1    
     8    4   70 1    
     9    5    6 1    
    10    5   65 1    
    11    5   71 1    
    12    6    7 1    
    13    6   72 1    
    14    6   73 1    
    15    7    8 1    
    16    8    9 1    
    17    8   74 1    
    18    8   75 1    
    19    9   10 ar   
    20    9   14 ar   
    21   10   11 ar   
    22   10   76 1    
    23   11   12 ar   
    24   11   48 1    
    25   12   13 ar   
    26   12   77 1    
    27   13   14 ar   
    28   13   15 1    
    29   14   78 1    
    30   15   16 1    
    31   15   79 1    
    32   15   80 1    
    33   16   17 1    
    34   17   18 1    
    35   17   81 1    
    36   17   82 1    
    37   18   19 1    
    38   18   22 1    
    39   18   83 1    
    40   19   20 am   BACKBONE|DICT|INTERRES
    41   19   21 2    
    42   20   84 1    
    43   20   85 1    
    44   22   23 am   BACKBONE|DICT|INTERRES
    45   22   86 1    
    46   23   24 2    
    47   23   25 1    
    48   25   26 1    
    49   25   27 1    
    50   25   87 1    
    51   26   88 1    
    52   26   89 1    
    53   26   90 1    
    54   27   28 am   BACKBONE|DICT|INTERRES
    55   27   91 1    
    56   28   29 2    
    57   28   30 1    
    58   30   31 1    
    59   30   32 1    
    60   30   92 1    
    61   31   93 1    
    62   31   94 1    
    63   31   95 1    
    64   32   33 am   BACKBONE|DICT|INTERRES
    65   32   96 1    
    66   33   34 2    
    67   33   35 1    
    68   35   36 1    
    69   35   37 1    
    70   35   97 1    
    71   36   98 1    
    72   36   99 1    
    73   36  100 1    
    74   37   38 am   BACKBONE|DICT|INTERRES
    75   37  101 1    
    76   38   39 2    
    77   38   40 1    
    78   40   41 1    
    79   40   42 1    
    80   40  102 1    
    81   41  103 1    
    82   41  104 1    
    83   41  105 1    
    84   42   43 am   BACKBONE|DICT|INTERRES
    85   42  106 1    
    86   43   44 2    
    87   43   45 1    
    88   45   46 1    
    89   45   49 1    
    90   45  107 1    
    91   46   47 1    
    92   46  108 1    
    93   46  109 1    
    94   47   48 1    
    95   48  110 1    
    96   48  111 1    
    97   49   50 am   BACKBONE|DICT|INTERRES
    98   49  112 1    
    99   50   51 2    
   100   50   52 1    
   101   52   53 1    
   102   52   54 1    
   103   52  113 1    
   104   53  114 1    
   105   53  115 1    
   106   53  116 1    
   107   54   55 am   BACKBONE|DICT|INTERRES
   108   54  117 1    
   109   55   56 2    
   110   55   57 1    
   111   57   58 1    
   112   57   59 1    
   113   57  118 1    
   114   58  119 1    
   115   58  120 1    
   116   58  121 1    
   117   59   60 am   BACKBONE|DICT|INTERRES
   118   59  122 1    
   119   60   61 2    
   120   60   62 1    
   121   62   63 1    
   122   62   64 1    
   123   62  123 1    
   124   63  124 1    
   125   63  125 1    
   126   63  126 1    
   127   64   65 am   BACKBONE|DICT|INTERRES
   128   64  127 1    
   129   65   66 2    
@<TRIPOS>SUBSTRUCTURE
     1 UNK         1 GROUP             0       ****    0 ROOT    
