@<TRIPOS>MOLECULE
3R135
127   129    1
SMALL
USER_CHARGES


@<TRIPOS>ATOM
      1 CA        -81.6415   29.1273  -76.6293 C.3       0 UNK        -0.1998 
      2 C         -81.3091   28.1553  -75.5082 C.2       0 UNK         0.4909 
      3 O         -80.6270   27.1586  -75.7480 O.2       0 UNK        -0.5240 
      4 N         -81.7840   28.4369  -74.2868 N.am      1 UNK        -0.4739 
      5 CA        -81.5742   27.6267  -73.0806 C.3       1 UNK         0.0864 
      6 C6        -82.2095   28.2715  -71.8207 C.3       11 UNK        -0.0881 
      7 S7        -81.6814   29.9964  -71.5234 S.3       11 UNK        -0.2682 
      8 C8        -80.5775   29.8369  -70.0826 C.3       11 UNK         0.0289 
      9 C9        -79.1701   29.4434  -70.5024 C.ar      11 UNK        -0.0687 
     10 C10       -78.8095   28.0954  -70.5865 C.ar      11 UNK        -0.0823 
     11 C11       -77.5301   27.7322  -71.0157 C.ar      11 UNK        -0.0830 
     12 C12       -76.6025   28.7267  -71.3331 C.ar      11 UNK        -0.1021 
     13 C13       -76.9413   30.0782  -71.2304 C.ar      11 UNK        -0.0753 
     14 C14       -78.2297   30.4313  -70.8173 C.ar      11 UNK        -0.0933 
     15 C15       -75.9210   31.1442  -71.6046 C.3       11 UNK         0.0166 
     16 S16       -74.4068   30.9999  -70.6030 S.3       11 UNK        -0.2615 
     17 C17       -73.2704   32.1145  -71.4974 C.3       11 UNK        -0.0865 
     18 CA        -72.7275   31.5413  -72.8379 C.3       10 UNK         0.0862 
     19 C         -71.6971   32.5219  -73.4726 C.2       10 UNK         0.5551 
     20 N         -70.4361   32.1444  -73.6438 N.am      10 UNK        -0.7319 
     21 O         -72.0529   33.6468  -73.8152 O.2       10 UNK        -0.5018 
     22 N         -72.2744   30.1433  -72.7112 N.am      10 UNK        -0.4509 
     23 C         -72.1075   29.3006  -73.7376 C.2       10 UNK         0.4899 
     24 O         -72.2656   29.6127  -74.9197 O.2       10 UNK        -0.4839 
     25 CA        -71.7129   27.8639  -73.3732 C.3       9 UNK         0.0222 
     26 CB        -72.9238   27.0674  -72.8513 C.3       9 UNK        -0.1966 
     27 N         -71.1438   27.2079  -74.5491 N.am      9 UNK        -0.4218 
     28 C         -70.2653   26.2012  -74.5315 C.2       9 UNK         0.5020 
     29 O         -69.9036   25.6331  -73.4986 O.2       9 UNK        -0.5274 
     30 CA        -69.6894   25.7613  -75.8934 C.3       8 UNK         0.0270 
     31 CB        -68.5446   24.7397  -75.7495 C.3       8 UNK        -0.1976 
     32 N         -70.7089   25.2000  -76.7837 N.am      8 UNK        -0.4313 
     33 C         -71.6015   25.9064  -77.4890 C.2       8 UNK         0.5041 
     34 O         -71.6767   27.1349  -77.4231 O.2       8 UNK        -0.5577 
     35 CA        -72.5359   25.1257  -78.4402 C.3       7 UNK         0.0284 
     36 CB        -72.4713   23.5933  -78.2691 C.3       7 UNK        -0.1958 
     37 N         -73.9237   25.5623  -78.2837 N.am      7 UNK        -0.4454 
     38 C         -74.4760   26.6252  -78.8892 C.2       7 UNK         0.5089 
     39 O         -73.9028   27.2954  -79.7497 O.2       7 UNK        -0.5125 
     40 CA        -75.9199   27.0067  -78.4966 C.3       6 UNK         0.0408 
     41 CB        -76.8895   26.7042  -79.6504 C.3       6 UNK        -0.1791 
     42 N         -76.4020   26.3406  -77.2833 N.am      6 UNK        -0.4762 
     43 C         -75.9535   26.5878  -76.0418 C.2       6 UNK         0.5007 
     44 O         -75.1534   27.4847  -75.7826 O.2       6 UNK        -0.5032 
     45 CA        -76.4560   25.6820  -74.8945 C.3       5 UNK         0.0783 
     46 C46       -77.4342   26.4687  -73.9934 C.3       11 UNK        -0.0857 
     47 S47       -78.0228   25.4931  -72.5659 S.3       11 UNK        -0.2512 
     48 C48       -77.1535   26.2668  -71.1671 C.3       11 UNK         0.0225 
     49 N         -77.0579   24.4293  -75.3569 N.am      5 UNK        -0.4615 
     50 C         -76.4631   23.4584  -76.0609 C.2       4 UNK         0.5053 
     51 O         -75.2742   23.4761  -76.3771 O.2       4 UNK        -0.5105 
     52 CA        -77.3699   22.3071  -76.5387 C.3       4 UNK         0.0263 
     53 CB        -77.2162   21.0871  -75.6177 C.3       4 UNK        -0.1981 
     54 N         -78.7889   22.6823  -76.6080 N.am      4 UNK        -0.4224 
     55 C         -79.3031   23.6381  -77.3947 C.2       3 UNK         0.4895 
     56 O         -78.6446   24.2492  -78.2361 O.2       3 UNK        -0.5091 
     57 CA        -80.7663   24.0420  -77.1501 C.3       3 UNK         0.0250 
     58 CB        -81.7465   23.0946  -77.8692 C.3       3 UNK        -0.1996 
     59 N         -81.1008   24.2236  -75.7270 N.am      3 UNK        -0.4254 
     60 C         -81.2299   23.2948  -74.7650 C.2       2 UNK         0.5004 
     61 O         -81.0573   22.0918  -74.9669 O.2       2 UNK        -0.5226 
     62 CA        -81.5560   23.7722  -73.3339 C.3       2 UNK         0.0269 
     63 CB        -80.8013   22.9432  -72.2773 C.3       2 UNK        -0.1926 
     64 N         -81.2490   25.1904  -73.1233 N.am      2 UNK        -0.4687 
     65 C         -82.1189   26.1951  -73.2790 C.2       1 UNK         0.5165 
     66 O         -83.3018   26.0328  -73.5871 O.2       1 UNK        -0.5079 
     67 H67       -82.2005   28.6170  -77.4130 H         1 UNK         0.0900 
     68 H68       -82.2391   29.9678  -76.2768 H         1 UNK         0.0900 
     69 H69       -80.7244   29.5217  -77.0660 H         1 UNK         0.0900 
     70 H70       -82.3396   29.2692  -74.1502 H         1 UNK         0.2959 
     71 H71       -80.4948   27.5702  -72.9253 H         1 UNK         0.1079 
     72 H72       -83.2978   28.2811  -71.9106 H         1 UNK         0.0837 
     73 H73       -81.9929   27.6689  -70.9369 H         1 UNK         0.0837 
     74 H74       -80.5485   30.7945  -69.5604 H         1 UNK         0.0685 
     75 H75       -80.9848   29.1193  -69.3688 H         1 UNK         0.0685 
     76 H76       -79.5306   27.3269  -70.3447 H         1 UNK         0.1434 
     77 H77       -75.6130   28.4526  -71.6720 H         1 UNK         0.1329 
     78 H78       -78.5079   31.4745  -70.7534 H         1 UNK         0.1335 
     79 H79       -75.6780   31.0300  -72.6613 H         1 UNK         0.0680 
     80 H80       -76.3356   32.1461  -71.4828 H         1 UNK         0.0680 
     81 H81       -73.7789   33.0657  -71.6676 H         1 UNK         0.1032 
     82 H82       -72.4406   32.3378  -70.8240 H         1 UNK         0.1032 
     83 H83       -73.5653   31.5254  -73.5369 H         1 UNK         0.0461 
     84 H84       -70.1394   31.2220  -73.3692 H         1 UNK         0.3453 
     85 H85       -69.7784   32.7862  -74.0578 H         1 UNK         0.3453 
     86 H86       -72.1291   29.8119  -71.7687 H         1 UNK         0.2984 
     87 H87       -70.9505   27.9138  -72.5929 H         1 UNK         0.0554 
     88 H88       -72.6493   26.0439  -72.5960 H         1 UNK         0.0847 
     89 H89       -73.7224   27.0253  -73.5910 H         1 UNK         0.0847 
     90 H90       -73.3356   27.5238  -71.9507 H         1 UNK         0.0847 
     91 H91       -71.4107   27.6120  -75.4460 H         1 UNK         0.3141 
     92 H92       -69.2711   26.6536  -76.3645 H         1 UNK         0.0743 
     93 H93       -67.7467   25.1334  -75.1182 H         1 UNK         0.0784 
     94 H94       -68.8871   23.8074  -75.2985 H         1 UNK         0.0784 
     95 H95       -68.1004   24.5021  -76.7163 H         1 UNK         0.0784 
     96 H96       -70.7294   24.1935  -76.8628 H         1 UNK         0.3213 
     97 H97       -72.2071   25.3547  -79.4562 H         1 UNK         0.0855 
     98 H98       -72.7204   23.2829  -77.2534 H         1 UNK         0.0814 
     99 H99       -71.4800   23.2057  -78.5076 H         1 UNK         0.0814 
    100 H100      -73.1707   23.0960  -78.9416 H         1 UNK         0.0814 
    101 H101      -74.4729   25.0644  -77.5923 H         1 UNK         0.3105 
    102 H102      -75.9327   28.0836  -78.3166 H         1 UNK         0.0547 
    103 H103      -77.9077   27.0070  -79.4053 H         1 UNK         0.0837 
    104 H104      -76.6012   27.2408  -80.5552 H         1 UNK         0.0837 
    105 H105      -76.9057   25.6411  -79.8937 H         1 UNK         0.0837 
    106 H106      -77.0761   25.5955  -77.4192 H         1 UNK         0.3020 
    107 H107      -75.5780   25.4162  -74.3018 H         1 UNK         0.1245 
    108 H108      -78.3090   26.7805  -74.5655 H         1 UNK         0.0781 
    109 H109      -76.9671   27.3905  -73.6484 H         1 UNK         0.0781 
    110 H110      -76.0773   26.1495  -71.3047 H         1 UNK         0.0836 
    111 H111      -77.4059   25.7313  -70.2508 H         1 UNK         0.0836 
    112 H112      -78.0351   24.3140  -75.1362 H         1 UNK         0.3022 
    113 H113      -77.0458   22.0297  -77.5438 H         1 UNK         0.0747 
    114 H114      -77.7928   20.2379  -75.9850 H         1 UNK         0.0793 
    115 H115      -76.1740   20.7697  -75.5604 H         1 UNK         0.0793 
    116 H116      -77.5486   21.3044  -74.6016 H         1 UNK         0.0793 
    117 H117      -79.4255   22.2346  -75.9527 H         1 UNK         0.3047 
    118 H118      -80.8893   25.0297  -77.5980 H         1 UNK         0.0822 
    119 H119      -81.5522   23.0810  -78.9424 H         1 UNK         0.0807 
    120 H120      -82.7793   23.4145  -77.7312 H         1 UNK         0.0807 
    121 H121      -81.6632   22.0667  -77.5156 H         1 UNK         0.0807 
    122 H122      -81.1815   25.1974  -75.4503 H         1 UNK         0.2946 
    123 H123      -82.6253   23.6036  -73.1863 H         1 UNK         0.1144 
    124 H124      -81.0153   23.2953  -71.2681 H         1 UNK         0.0793 
    125 H125      -79.7218   22.9838  -72.4255 H         1 UNK         0.0793 
    126 H126      -81.0948   21.8934  -72.3184 H         1 UNK         0.0793 
    127 H127      -80.2846   25.4035  -72.8978 H         1 UNK         0.2896 
@<TRIPOS>BOND
     1    1    2 1    
     2    1   67 1    
     3    1   68 1    
     4    1   69 1    
     5    2    3 2    
     6    2    4 am   BACKBONE|DICT|INTERRES
     7    4    5 1    
     8    4   70 1    
     9    5    6 1    
    10    5   65 1    
    11    5   71 1    
    12    6    7 1    
    13    6   72 1    
    14    6   73 1    
    15    7    8 1    
    16    8    9 1    
    17    8   74 1    
    18    8   75 1    
    19    9   10 ar   
    20    9   14 ar   
    21   10   11 ar   
    22   10   76 1    
    23   11   12 ar   
    24   11   48 1    
    25   12   13 ar   
    26   12   77 1    
    27   13   14 ar   
    28   13   15 1    
    29   14   78 1    
    30   15   16 1    
    31   15   79 1    
    32   15   80 1    
    33   16   17 1    
    34   17   18 1    
    35   17   81 1    
    36   17   82 1    
    37   18   19 1    
    38   18   22 1    
    39   18   83 1    
    40   19   20 am   BACKBONE|DICT|INTERRES
    41   19   21 2    
    42   20   84 1    
    43   20   85 1    
    44   22   23 am   BACKBONE|DICT|INTERRES
    45   22   86 1    
    46   23   24 2    
    47   23   25 1    
    48   25   26 1    
    49   25   27 1    
    50   25   87 1    
    51   26   88 1    
    52   26   89 1    
    53   26   90 1    
    54   27   28 am   BACKBONE|DICT|INTERRES
    55   27   91 1    
    56   28   29 2    
    57   28   30 1    
    58   30   31 1    
    59   30   32 1    
    60   30   92 1    
    61   31   93 1    
    62   31   94 1    
    63   31   95 1    
    64   32   33 am   BACKBONE|DICT|INTERRES
    65   32   96 1    
    66   33   34 2    
    67   33   35 1    
    68   35   36 1    
    69   35   37 1    
    70   35   97 1    
    71   36   98 1    
    72   36   99 1    
    73   36  100 1    
    74   37   38 am   BACKBONE|DICT|INTERRES
    75   37  101 1    
    76   38   39 2    
    77   38   40 1    
    78   40   41 1    
    79   40   42 1    
    80   40  102 1    
    81   41  103 1    
    82   41  104 1    
    83   41  105 1    
    84   42   43 am   BACKBONE|DICT|INTERRES
    85   42  106 1    
    86   43   44 2    
    87   43   45 1    
    88   45   46 1    
    89   45   49 1    
    90   45  107 1    
    91   46   47 1    
    92   46  108 1    
    93   46  109 1    
    94   47   48 1    
    95   48  110 1    
    96   48  111 1    
    97   49   50 am   BACKBONE|DICT|INTERRES
    98   49  112 1    
    99   50   51 2    
   100   50   52 1    
   101   52   53 1    
   102   52   54 1    
   103   52  113 1    
   104   53  114 1    
   105   53  115 1    
   106   53  116 1    
   107   54   55 am   BACKBONE|DICT|INTERRES
   108   54  117 1    
   109   55   56 2    
   110   55   57 1    
   111   57   58 1    
   112   57   59 1    
   113   57  118 1    
   114   58  119 1    
   115   58  120 1    
   116   58  121 1    
   117   59   60 am   BACKBONE|DICT|INTERRES
   118   59  122 1    
   119   60   61 2    
   120   60   62 1    
   121   62   63 1    
   122   62   64 1    
   123   62  123 1    
   124   63  124 1    
   125   63  125 1    
   126   63  126 1    
   127   64   65 am   BACKBONE|DICT|INTERRES
   128   64  127 1    
   129   65   66 2    
@<TRIPOS>SUBSTRUCTURE
     1 UNK         1 GROUP             0       ****    0 ROOT    
