@<TRIPOS>MOLECULE
3R135
127   129    1
SMALL
USER_CHARGES


@<TRIPOS>ATOM
      1 CA        -83.1497   27.4724  -70.4779 C.3       0 UNK        -0.1998 
      2 C         -83.5222   27.5007  -71.9526 C.2       0 UNK         0.4909 
      3 O         -84.6496   27.1569  -72.3084 O.2       0 UNK        -0.5240 
      4 N         -82.5805   27.9064  -72.8138 N.am      1 UNK        -0.4739 
      5 CA        -82.7423   27.9704  -74.2729 C.3       1 UNK         0.0864 
      6 C6        -81.7438   28.9699  -74.9159 C.3       11 UNK        -0.0881 
      7 S7        -79.9894   28.5776  -74.5898 S.3       11 UNK        -0.2682 
      8 C8        -79.5715   29.7897  -73.2998 C.3       11 UNK         0.0289 
      9 C9        -78.3537   29.3453  -72.5041 C.ar      11 UNK        -0.0687 
     10 C10       -78.4109   28.1688  -71.7520 C.ar      11 UNK        -0.0823 
     11 C11       -77.3121   27.7503  -70.9996 C.ar      11 UNK        -0.0830 
     12 C12       -76.1545   28.5340  -70.9794 C.ar      11 UNK        -0.1021 
     13 C13       -76.0851   29.7183  -71.7208 C.ar      11 UNK        -0.0753 
     14 C14       -77.1850   30.1136  -72.4910 C.ar      11 UNK        -0.0933 
     15 C15       -74.8430   30.5951  -71.6456 C.3       11 UNK         0.0166 
     16 S16       -73.3928   29.8201  -72.4273 S.3       11 UNK        -0.2615 
     17 C17       -72.1446   31.1317  -72.1767 C.3       11 UNK        -0.0865 
     18 CA        -71.7206   31.8036  -73.5180 C.3       10 UNK         0.0862 
     19 C         -70.9445   33.1481  -73.3400 C.2       10 UNK         0.5551 
     20 N         -71.3291   33.9878  -72.3872 N.am      10 UNK        -0.7319 
     21 O         -70.0295   33.4748  -74.0947 O.2       10 UNK        -0.5018 
     22 N         -71.0521   30.8540  -74.4261 N.am      10 UNK        -0.4509 
     23 C         -69.8481   30.2945  -74.2502 C.2       10 UNK         0.4899 
     24 O         -69.1454   30.4567  -73.2505 O.2       10 UNK        -0.4839 
     25 CA        -69.3669   29.3648  -75.3785 C.3       9 UNK         0.0222 
     26 CB        -67.8349   29.2060  -75.3936 C.3       9 UNK        -0.1966 
     27 N         -69.9828   28.0439  -75.2542 N.am      9 UNK        -0.4218 
     28 C         -71.2408   27.7483  -75.6028 C.2       9 UNK         0.5020 
     29 O         -72.0164   28.5582  -76.1185 O.2       9 UNK        -0.5274 
     30 CA        -71.7035   26.3159  -75.2855 C.3       8 UNK         0.0270 
     31 CB        -72.0929   26.1951  -73.8025 C.3       8 UNK        -0.1976 
     32 N         -72.8352   25.9092  -76.1229 N.am      8 UNK        -0.4313 
     33 C         -72.7303   25.5924  -77.4229 C.2       8 UNK         0.5041 
     34 O         -71.6528   25.5519  -78.0209 O.2       8 UNK        -0.5577 
     35 CA        -74.0120   25.2304  -78.2015 C.3       7 UNK         0.0284 
     36 CB        -74.0496   23.7220  -78.5004 C.3       7 UNK        -0.1958 
     37 N         -75.2545   25.6017  -77.5262 N.am      7 UNK        -0.4454 
     38 C         -75.7074   26.8503  -77.3523 C.2       7 UNK         0.5089 
     39 O         -75.1636   27.8503  -77.8202 O.2       7 UNK        -0.5125 
     40 CA        -76.9861   27.0060  -76.5063 C.3       6 UNK         0.0408 
     41 CB        -78.2080   27.0578  -77.4379 C.3       6 UNK        -0.1791 
     42 N         -77.1756   25.9398  -75.5123 N.am      6 UNK        -0.4762 
     43 C         -76.3118   25.6199  -74.5343 C.2       6 UNK         0.5007 
     44 O         -75.2466   26.2070  -74.3561 O.2       6 UNK        -0.5032 
     45 CA        -76.6405   24.3822  -73.6781 C.3       5 UNK         0.0783 
     46 C46       -77.5140   24.7169  -72.4417 C.3       11 UNK        -0.0857 
     47 S47       -76.4813   25.1015  -70.9851 S.3       11 UNK        -0.2512 
     48 C48       -77.3878   26.4645  -70.1910 C.3       11 UNK         0.0225 
     49 N         -77.2392   23.3339  -74.5077 N.am      5 UNK        -0.4615 
     50 C         -76.5356   22.3962  -75.1574 C.2       4 UNK         0.5053 
     51 O         -75.3117   22.2875  -75.0862 O.2       4 UNK        -0.5105 
     52 CA        -77.3190   21.4098  -76.0418 C.3       4 UNK         0.0263 
     53 CB        -77.6862   20.1491  -75.2428 C.3       4 UNK        -0.1981 
     54 N         -78.5337   21.9850  -76.6225 N.am      4 UNK        -0.4224 
     55 C         -78.5481   22.9623  -77.5392 C.2       3 UNK         0.4895 
     56 O         -77.5340   23.4648  -78.0234 O.2       3 UNK        -0.5091 
     57 CA        -79.9299   23.4958  -77.9570 C.3       3 UNK         0.0250 
     58 CB        -80.4882   22.6732  -79.1292 C.3       3 UNK        -0.1996 
     59 N         -80.9244   23.5452  -76.8760 N.am      3 UNK        -0.4254 
     60 C         -80.7718   24.1889  -75.7100 C.2       2 UNK         0.5004 
     61 O         -79.7209   24.7226  -75.3489 O.2       2 UNK        -0.5226 
     62 CA        -81.9773   24.2085  -74.7608 C.3       2 UNK         0.0269 
     63 CB        -81.7465   23.2465  -73.5840 C.3       2 UNK        -0.1926 
     64 N         -82.1915   25.5593  -74.2419 N.am      2 UNK        -0.4687 
     65 C         -82.6914   26.5814  -74.9529 C.2       1 UNK         0.5165 
     66 O         -83.1131   26.4604  -76.1047 O.2       1 UNK        -0.5079 
     67 H67       -82.1276   27.8104  -70.3077 H         1 UNK         0.0900 
     68 H68       -83.2415   26.4592  -70.0873 H         1 UNK         0.0900 
     69 H69       -83.8187   28.1184  -69.9100 H         1 UNK         0.0900 
     70 H70       -81.6701   28.1743  -72.4714 H         1 UNK         0.2959 
     71 H71       -83.7458   28.3540  -74.4724 H         1 UNK         0.1079 
     72 H72       -81.8882   29.0086  -75.9975 H         1 UNK         0.0837 
     73 H73       -81.9580   29.9801  -74.5635 H         1 UNK         0.0837 
     74 H74       -79.4048   30.7616  -73.7667 H         1 UNK         0.0685 
     75 H75       -80.4109   29.9137  -72.6146 H         1 UNK         0.0685 
     76 H76       -79.3132   27.5736  -71.7611 H         1 UNK         0.1434 
     77 H77       -75.3051   28.2225  -70.3867 H         1 UNK         0.1329 
     78 H78       -77.1392   31.0304  -73.0627 H         1 UNK         0.1335 
     79 H79       -75.0268   31.5608  -72.1194 H         1 UNK         0.0680 
     80 H80       -74.6192   30.8014  -70.5978 H         1 UNK         0.0680 
     81 H81       -71.2799   30.7001  -71.6707 H         1 UNK         0.1032 
     82 H82       -72.5526   31.8608  -71.4769 H         1 UNK         0.1032 
     83 H83       -72.6329   32.0935  -74.0408 H         1 UNK         0.0461 
     84 H84       -70.8413   34.8646  -72.2881 H         1 UNK         0.3453 
     85 H85       -72.1026   33.7776  -71.7773 H         1 UNK         0.3453 
     86 H86       -71.5744   30.5914  -75.2526 H         1 UNK         0.2984 
     87 H87       -69.6616   29.8080  -76.3324 H         1 UNK         0.0554 
     88 H88       -67.5066   28.6056  -76.2422 H         1 UNK         0.0847 
     89 H89       -67.4640   28.7317  -74.4840 H         1 UNK         0.0847 
     90 H90       -67.3449   30.1770  -75.4767 H         1 UNK         0.0847 
     91 H91       -69.4269   27.3320  -74.8019 H         1 UNK         0.3141 
     92 H92       -70.8748   25.6315  -75.4801 H         1 UNK         0.0743 
     93 H93       -72.8583   26.9222  -73.5279 H         1 UNK         0.0784 
     94 H94       -72.4756   25.2014  -73.5685 H         1 UNK         0.0784 
     95 H95       -71.2344   26.3734  -73.1541 H         1 UNK         0.0784 
     96 H96       -73.7555   25.9825  -75.6995 H         1 UNK         0.3213 
     97 H97       -73.9731   25.7674  -79.1516 H         1 UNK         0.0855 
     98 H98       -74.1076   23.1318  -77.5848 H         1 UNK         0.0814 
     99 H99       -73.1543   23.4055  -79.0372 H         1 UNK         0.0814 
    100 H100      -74.9069   23.4614  -79.1216 H         1 UNK         0.0814 
    101 H101      -75.8206   24.8445  -77.1650 H         1 UNK         0.3105 
    102 H102      -76.9222   27.9489  -75.9595 H         1 UNK         0.0547 
    103 H103      -78.1928   27.9644  -78.0436 H         1 UNK         0.0837 
    104 H104      -78.2214   26.2119  -78.1245 H         1 UNK         0.0837 
    105 H105      -79.1464   27.0509  -76.8853 H         1 UNK         0.0837 
    106 H106      -78.0604   25.4365  -75.5546 H         1 UNK         0.3020 
    107 H107      -75.6817   24.0032  -73.3149 H         1 UNK         0.1245 
    108 H108      -78.1256   23.8564  -72.1656 H         1 UNK         0.0781 
    109 H109      -78.2210   25.5202  -72.6539 H         1 UNK         0.0781 
    110 H110      -76.9640   26.6376  -69.2007 H         1 UNK         0.0836 
    111 H111      -78.4241   26.1638  -70.0281 H         1 UNK         0.0836 
    112 H112      -78.2338   23.4156  -74.6807 H         1 UNK         0.3022 
    113 H113      -76.6623   21.1151  -76.8635 H         1 UNK         0.0747 
    114 H114      -78.1683   19.4038  -75.8758 H         1 UNK         0.0793 
    115 H115      -76.7953   19.6834  -74.8187 H         1 UNK         0.0793 
    116 H116      -78.3601   20.3760  -74.4156 H         1 UNK         0.0793 
    117 H117      -79.4170   21.6334  -76.2830 H         1 UNK         0.3047 
    118 H118      -79.7898   24.5200  -78.3049 H         1 UNK         0.0822 
    119 H119      -81.4091   23.1086  -79.5178 H         1 UNK         0.0807 
    120 H120      -80.6992   21.6436  -78.8376 H         1 UNK         0.0807 
    121 H121      -79.7765   22.6384  -79.9556 H         1 UNK         0.0807 
    122 H122      -81.8181   23.1194  -77.0772 H         1 UNK         0.2946 
    123 H123      -82.8733   23.8962  -75.3022 H         1 UNK         0.1144 
    124 H124      -82.6001   23.2383  -72.9058 H         1 UNK         0.0793 
    125 H125      -80.8619   23.5181  -73.0059 H         1 UNK         0.0793 
    126 H126      -81.6044   22.2240  -73.9364 H         1 UNK         0.0793 
    127 H127      -81.8358   25.7556  -73.3188 H         1 UNK         0.2896 
@<TRIPOS>BOND
     1    1    2 1    
     2    1   67 1    
     3    1   68 1    
     4    1   69 1    
     5    2    3 2    
     6    2    4 am   BACKBONE|DICT|INTERRES
     7    4    5 1    
     8    4   70 1    
     9    5    6 1    
    10    5   65 1    
    11    5   71 1    
    12    6    7 1    
    13    6   72 1    
    14    6   73 1    
    15    7    8 1    
    16    8    9 1    
    17    8   74 1    
    18    8   75 1    
    19    9   10 ar   
    20    9   14 ar   
    21   10   11 ar   
    22   10   76 1    
    23   11   12 ar   
    24   11   48 1    
    25   12   13 ar   
    26   12   77 1    
    27   13   14 ar   
    28   13   15 1    
    29   14   78 1    
    30   15   16 1    
    31   15   79 1    
    32   15   80 1    
    33   16   17 1    
    34   17   18 1    
    35   17   81 1    
    36   17   82 1    
    37   18   19 1    
    38   18   22 1    
    39   18   83 1    
    40   19   20 am   BACKBONE|DICT|INTERRES
    41   19   21 2    
    42   20   84 1    
    43   20   85 1    
    44   22   23 am   BACKBONE|DICT|INTERRES
    45   22   86 1    
    46   23   24 2    
    47   23   25 1    
    48   25   26 1    
    49   25   27 1    
    50   25   87 1    
    51   26   88 1    
    52   26   89 1    
    53   26   90 1    
    54   27   28 am   BACKBONE|DICT|INTERRES
    55   27   91 1    
    56   28   29 2    
    57   28   30 1    
    58   30   31 1    
    59   30   32 1    
    60   30   92 1    
    61   31   93 1    
    62   31   94 1    
    63   31   95 1    
    64   32   33 am   BACKBONE|DICT|INTERRES
    65   32   96 1    
    66   33   34 2    
    67   33   35 1    
    68   35   36 1    
    69   35   37 1    
    70   35   97 1    
    71   36   98 1    
    72   36   99 1    
    73   36  100 1    
    74   37   38 am   BACKBONE|DICT|INTERRES
    75   37  101 1    
    76   38   39 2    
    77   38   40 1    
    78   40   41 1    
    79   40   42 1    
    80   40  102 1    
    81   41  103 1    
    82   41  104 1    
    83   41  105 1    
    84   42   43 am   BACKBONE|DICT|INTERRES
    85   42  106 1    
    86   43   44 2    
    87   43   45 1    
    88   45   46 1    
    89   45   49 1    
    90   45  107 1    
    91   46   47 1    
    92   46  108 1    
    93   46  109 1    
    94   47   48 1    
    95   48  110 1    
    96   48  111 1    
    97   49   50 am   BACKBONE|DICT|INTERRES
    98   49  112 1    
    99   50   51 2    
   100   50   52 1    
   101   52   53 1    
   102   52   54 1    
   103   52  113 1    
   104   53  114 1    
   105   53  115 1    
   106   53  116 1    
   107   54   55 am   BACKBONE|DICT|INTERRES
   108   54  117 1    
   109   55   56 2    
   110   55   57 1    
   111   57   58 1    
   112   57   59 1    
   113   57  118 1    
   114   58  119 1    
   115   58  120 1    
   116   58  121 1    
   117   59   60 am   BACKBONE|DICT|INTERRES
   118   59  122 1    
   119   60   61 2    
   120   60   62 1    
   121   62   63 1    
   122   62   64 1    
   123   62  123 1    
   124   63  124 1    
   125   63  125 1    
   126   63  126 1    
   127   64   65 am   BACKBONE|DICT|INTERRES
   128   64  127 1    
   129   65   66 2    
@<TRIPOS>SUBSTRUCTURE
     1 UNK         1 GROUP             0       ****    0 ROOT    
