@<TRIPOS>MOLECULE
3R135
127   129    1
SMALL
USER_CHARGES


@<TRIPOS>ATOM
      1 CA        -85.2532   26.8543  -72.8293 C.3       0 UNK        -0.1998 
      2 C         -84.2884   27.6163  -73.7253 C.2       0 UNK         0.4909 
      3 O         -84.7166   28.4807  -74.4903 O.2       0 UNK        -0.5240 
      4 N         -82.9886   27.3005  -73.6393 N.am      1 UNK        -0.4739 
      5 CA        -81.9222   27.9236  -74.4377 C.3       1 UNK         0.0864 
      6 C6        -80.5490   27.7883  -73.7321 C.3       11 UNK        -0.0881 
      7 S7        -79.3896   29.1151  -74.2203 S.3       11 UNK        -0.2682 
      8 C8        -78.8908   29.8109  -72.6167 C.3       11 UNK         0.0289 
      9 C9        -77.7498   29.0161  -72.0017 C.ar      11 UNK        -0.0687 
     10 C10       -78.0112   27.8967  -71.2066 C.ar      11 UNK        -0.0823 
     11 C11       -76.9616   27.1713  -70.6365 C.ar      11 UNK        -0.0830 
     12 C12       -75.6439   27.5901  -70.8407 C.ar      11 UNK        -0.1021 
     13 C13       -75.3692   28.7020  -71.6411 C.ar      11 UNK        -0.0753 
     14 C14       -76.4262   29.4052  -72.2268 C.ar      11 UNK        -0.0933 
     15 C15       -73.9306   29.1213  -71.8977 C.3       11 UNK         0.0166 
     16 S16       -73.5925   30.8003  -71.2767 S.3       11 UNK        -0.2615 
     17 C17       -71.7907   30.9287  -71.5396 C.3       11 UNK        -0.0865 
     18 CA        -71.4113   31.6107  -72.8807 C.3       10 UNK         0.0862 
     19 C         -69.8760   31.8695  -72.9386 C.2       10 UNK         0.5551 
     20 N         -69.1071   31.1607  -73.7581 N.am      10 UNK        -0.7319 
     21 O         -69.3759   32.7333  -72.2223 O.2       10 UNK        -0.5018 
     22 N         -71.9385   30.8583  -74.0273 N.am      10 UNK        -0.4509 
     23 C         -72.0034   31.2947  -75.2902 C.2       10 UNK         0.4899 
     24 O         -71.7611   32.4558  -75.6231 O.2       10 UNK        -0.4839 
     25 CA        -72.3990   30.2539  -76.3621 C.3       9 UNK         0.0222 
     26 CB        -71.7001   30.5188  -77.7117 C.3       9 UNK        -0.1966 
     27 N         -72.2062   28.8503  -75.9591 N.am      9 UNK        -0.4218 
     28 C         -71.0644   28.2654  -75.5518 C.2       9 UNK         0.5020 
     29 O         -69.9971   28.8670  -75.4217 O.2       9 UNK        -0.5274 
     30 CA        -71.1185   26.7715  -75.1805 C.3       8 UNK         0.0270 
     31 CB        -71.1666   26.6036  -73.6528 C.3       8 UNK        -0.1976 
     32 N         -72.2530   26.0671  -75.7818 N.am      8 UNK        -0.4313 
     33 C         -72.3442   25.7691  -77.0872 C.2       8 UNK         0.5041 
     34 O         -71.4339   25.9671  -77.8930 O.2       8 UNK        -0.5577 
     35 CA        -73.6682   25.1707  -77.5988 C.3       7 UNK         0.0284 
     36 CB        -73.5081   23.6659  -77.8674 C.3       7 UNK        -0.1958 
     37 N         -74.8151   25.3819  -76.7107 N.am      7 UNK        -0.4454 
     38 C         -75.3310   26.5759  -76.3753 C.2       7 UNK         0.5089 
     39 O         -74.8762   27.6518  -76.7655 O.2       7 UNK        -0.5125 
     40 CA        -76.5302   26.5687  -75.4089 C.3       6 UNK         0.0408 
     41 CB        -77.8261   26.4946  -76.2321 C.3       6 UNK        -0.1791 
     42 N         -76.5036   25.4656  -74.4397 N.am      6 UNK        -0.4762 
     43 C         -75.4830   25.1719  -73.6145 C.2       6 UNK         0.5007 
     44 O         -74.4613   25.8552  -73.5278 O.2       6 UNK        -0.5032 
     45 CA        -75.5509   23.8393  -72.8341 C.3       5 UNK         0.0783 
     46 C46       -75.7806   24.0352  -71.3145 C.3       11 UNK        -0.0857 
     47 S47       -77.4984   24.4657  -70.8572 S.3       11 UNK        -0.2512 
     48 C48       -77.2575   25.9333  -69.8055 C.3       11 UNK         0.0225 
     49 N         -76.4753   22.8523  -73.4033 N.am      5 UNK        -0.4615 
     50 C         -76.4046   22.3268  -74.6324 C.2       4 UNK         0.5053 
     51 O         -75.5466   22.6381  -75.4597 O.2       4 UNK        -0.5105 
     52 CA        -77.4823   21.3032  -75.0262 C.3       4 UNK         0.0263 
     53 CB        -78.3479   20.7990  -73.8469 C.3       4 UNK        -0.1981 
     54 N         -78.3266   21.8125  -76.1110 N.am      4 UNK        -0.4224 
     55 C         -79.1119   22.8999  -76.0897 C.2       3 UNK         0.4895 
     56 O         -79.2147   23.6628  -75.1244 O.2       3 UNK        -0.5091 
     57 CA        -79.9234   23.1713  -77.3664 C.3       3 UNK         0.0250 
     58 CB        -80.5979   21.8884  -77.9090 C.3       3 UNK        -0.1996 
     59 N         -80.9354   24.1919  -77.0935 N.am      3 UNK        -0.4254 
     60 C         -81.6258   24.8664  -78.0209 C.2       2 UNK         0.5004 
     61 O         -81.4160   24.7726  -79.2312 O.2       2 UNK        -0.5226 
     62 CA        -82.7697   25.7701  -77.5352 C.3       2 UNK         0.0269 
     63 CB        -84.1033   25.0056  -77.5816 C.3       2 UNK        -0.1926 
     64 N         -82.5731   26.2944  -76.1814 N.am      2 UNK        -0.4687 
     65 C         -81.8923   27.4152  -75.9015 C.2       1 UNK         0.5165 
     66 O         -81.2908   28.0624  -76.7597 O.2       1 UNK        -0.5079 
     67 H67       -85.9882   26.3244  -73.4346 H         1 UNK         0.0900 
     68 H68       -85.7845   27.5465  -72.1767 H         1 UNK         0.0900 
     69 H69       -84.7398   26.1249  -72.2031 H         1 UNK         0.0900 
     70 H70       -82.6946   26.5829  -72.9913 H         1 UNK         0.2959 
     71 H71       -82.1588   28.9889  -74.4968 H         1 UNK         0.1079 
     72 H72       -80.0997   26.8096  -73.9043 H         1 UNK         0.0837 
     73 H73       -80.6944   27.8490  -72.6536 H         1 UNK         0.0837 
     74 H74       -79.7427   29.8547  -71.9366 H         1 UNK         0.0685 
     75 H75       -78.5781   30.8448  -72.7709 H         1 UNK         0.0685 
     76 H76       -79.0307   27.5805  -71.0376 H         1 UNK         0.1434 
     77 H77       -74.8287   27.0379  -70.3946 H         1 UNK         0.1329 
     78 H78       -76.2157   30.2625  -72.8515 H         1 UNK         0.1335 
     79 H79       -73.2390   28.4196  -71.4287 H         1 UNK         0.0680 
     80 H80       -73.7443   29.0750  -72.9705 H         1 UNK         0.0680 
     81 H81       -71.3899   31.5021  -70.7012 H         1 UNK         0.1032 
     82 H82       -71.3337   29.9400  -71.4650 H         1 UNK         0.1032 
     83 H83       -71.8853   32.5941  -72.8987 H         1 UNK         0.0461 
     84 H84       -68.1168   31.3433  -73.7841 H         1 UNK         0.3453 
     85 H85       -69.4998   30.4331  -74.3479 H         1 UNK         0.3453 
     86 H86       -72.1461   29.8876  -73.8588 H         1 UNK         0.2984 
     87 H87       -73.4722   30.3750  -76.5159 H         1 UNK         0.0554 
     88 H88       -72.0061   29.7931  -78.4653 H         1 UNK         0.0847 
     89 H89       -70.6145   30.4691  -77.6198 H         1 UNK         0.0847 
     90 H90       -71.9491   31.5078  -78.0982 H         1 UNK         0.0847 
     91 H91       -73.0339   28.2687  -76.0500 H         1 UNK         0.3141 
     92 H92       -70.1972   26.3112  -75.5441 H         1 UNK         0.0743 
     93 H93       -70.3071   27.0807  -73.1795 H         1 UNK         0.0784 
     94 H94       -72.0639   27.0500  -73.2245 H         1 UNK         0.0784 
     95 H95       -71.1492   25.5513  -73.3685 H         1 UNK         0.0784 
     96 H96       -73.0451   25.8766  -75.1770 H         1 UNK         0.3213 
     97 H97       -73.8961   25.6644  -78.5459 H         1 UNK         0.0855 
     98 H98       -73.2715   23.1176  -76.9546 H         1 UNK         0.0814 
     99 H99       -72.7018   23.4787  -78.5779 H         1 UNK         0.0814 
    100 H100      -74.4172   23.2370  -78.2895 H         1 UNK         0.0814 
    101 H101      -75.2260   24.5477  -76.3031 H         1 UNK         0.3105 
    102 H102      -76.5228   27.5019  -74.8421 H         1 UNK         0.0547 
    103 H103      -77.9462   27.3857  -76.8496 H         1 UNK         0.0837 
    104 H104      -77.8348   25.6322  -76.8993 H         1 UNK         0.0837 
    105 H105      -78.7055   26.4241  -75.5976 H         1 UNK         0.0837 
    106 H106      -77.2990   24.8383  -74.4477 H         1 UNK         0.3020 
    107 H107      -74.5534   23.4074  -72.9446 H         1 UNK         0.1245 
    108 H108      -75.0822   24.7715  -70.9158 H         1 UNK         0.0781 
    109 H109      -75.5364   23.1067  -70.7962 H         1 UNK         0.0781 
    110 H110      -76.4599   25.7472  -69.0845 H         1 UNK         0.0836 
    111 H111      -78.1623   26.0963  -69.2180 H         1 UNK         0.0836 
    112 H112      -77.2447   22.5816  -72.8078 H         1 UNK         0.3022 
    113 H113      -76.9455   20.4428  -75.4286 H         1 UNK         0.0747 
    114 H114      -79.0349   20.0194  -74.1762 H         1 UNK         0.0793 
    115 H115      -77.7291   20.3639  -73.0609 H         1 UNK         0.0793 
    116 H116      -78.9474   21.5921  -73.3985 H         1 UNK         0.0793 
    117 H117      -78.2861   21.2801  -76.9687 H         1 UNK         0.3047 
    118 H118      -79.2308   23.5610  -78.1153 H         1 UNK         0.0822 
    119 H119      -79.8644   21.1404  -78.2106 H         1 UNK         0.0807 
    120 H120      -81.2054   22.0922  -78.7906 H         1 UNK         0.0807 
    121 H121      -81.2468   21.4312  -77.1607 H         1 UNK         0.0807 
    122 H122      -81.1024   24.3712  -76.1117 H         1 UNK         0.2946 
    123 H123      -82.8391   26.6066  -78.2351 H         1 UNK         0.1144 
    124 H124      -84.2999   24.6240  -78.5847 H         1 UNK         0.0793 
    125 H125      -84.9399   25.6512  -77.3133 H         1 UNK         0.0793 
    126 H126      -84.1053   24.1520  -76.9026 H         1 UNK         0.0793 
    127 H127      -83.0536   25.8247  -75.4279 H         1 UNK         0.2896 
@<TRIPOS>BOND
     1    1    2 1    
     2    1   67 1    
     3    1   68 1    
     4    1   69 1    
     5    2    3 2    
     6    2    4 am   BACKBONE|DICT|INTERRES
     7    4    5 1    
     8    4   70 1    
     9    5    6 1    
    10    5   65 1    
    11    5   71 1    
    12    6    7 1    
    13    6   72 1    
    14    6   73 1    
    15    7    8 1    
    16    8    9 1    
    17    8   74 1    
    18    8   75 1    
    19    9   10 ar   
    20    9   14 ar   
    21   10   11 ar   
    22   10   76 1    
    23   11   12 ar   
    24   11   48 1    
    25   12   13 ar   
    26   12   77 1    
    27   13   14 ar   
    28   13   15 1    
    29   14   78 1    
    30   15   16 1    
    31   15   79 1    
    32   15   80 1    
    33   16   17 1    
    34   17   18 1    
    35   17   81 1    
    36   17   82 1    
    37   18   19 1    
    38   18   22 1    
    39   18   83 1    
    40   19   20 am   BACKBONE|DICT|INTERRES
    41   19   21 2    
    42   20   84 1    
    43   20   85 1    
    44   22   23 am   BACKBONE|DICT|INTERRES
    45   22   86 1    
    46   23   24 2    
    47   23   25 1    
    48   25   26 1    
    49   25   27 1    
    50   25   87 1    
    51   26   88 1    
    52   26   89 1    
    53   26   90 1    
    54   27   28 am   BACKBONE|DICT|INTERRES
    55   27   91 1    
    56   28   29 2    
    57   28   30 1    
    58   30   31 1    
    59   30   32 1    
    60   30   92 1    
    61   31   93 1    
    62   31   94 1    
    63   31   95 1    
    64   32   33 am   BACKBONE|DICT|INTERRES
    65   32   96 1    
    66   33   34 2    
    67   33   35 1    
    68   35   36 1    
    69   35   37 1    
    70   35   97 1    
    71   36   98 1    
    72   36   99 1    
    73   36  100 1    
    74   37   38 am   BACKBONE|DICT|INTERRES
    75   37  101 1    
    76   38   39 2    
    77   38   40 1    
    78   40   41 1    
    79   40   42 1    
    80   40  102 1    
    81   41  103 1    
    82   41  104 1    
    83   41  105 1    
    84   42   43 am   BACKBONE|DICT|INTERRES
    85   42  106 1    
    86   43   44 2    
    87   43   45 1    
    88   45   46 1    
    89   45   49 1    
    90   45  107 1    
    91   46   47 1    
    92   46  108 1    
    93   46  109 1    
    94   47   48 1    
    95   48  110 1    
    96   48  111 1    
    97   49   50 am   BACKBONE|DICT|INTERRES
    98   49  112 1    
    99   50   51 2    
   100   50   52 1    
   101   52   53 1    
   102   52   54 1    
   103   52  113 1    
   104   53  114 1    
   105   53  115 1    
   106   53  116 1    
   107   54   55 am   BACKBONE|DICT|INTERRES
   108   54  117 1    
   109   55   56 2    
   110   55   57 1    
   111   57   58 1    
   112   57   59 1    
   113   57  118 1    
   114   58  119 1    
   115   58  120 1    
   116   58  121 1    
   117   59   60 am   BACKBONE|DICT|INTERRES
   118   59  122 1    
   119   60   61 2    
   120   60   62 1    
   121   62   63 1    
   122   62   64 1    
   123   62  123 1    
   124   63  124 1    
   125   63  125 1    
   126   63  126 1    
   127   64   65 am   BACKBONE|DICT|INTERRES
   128   64  127 1    
   129   65   66 2    
@<TRIPOS>SUBSTRUCTURE
     1 UNK         1 GROUP             0       ****    0 ROOT    
