@<TRIPOS>MOLECULE
3R135
127   129    1
SMALL
USER_CHARGES


@<TRIPOS>ATOM
      1 CA        -86.0340   26.2313  -72.5663 C.3       0 UNK        -0.1998 
      2 C         -84.5618   26.1266  -72.9370 C.2       0 UNK         0.4909 
      3 O         -84.2177   26.2677  -74.1112 O.2       0 UNK        -0.5240 
      4 N         -83.6968   25.8880  -71.9430 N.am      1 UNK        -0.4739 
      5 CA        -82.2530   25.6879  -72.1085 C.3       1 UNK         0.0864 
      6 C6        -81.4552   26.3961  -70.9769 C.3       11 UNK        -0.0881 
      7 S7        -79.8214   26.9768  -71.5517 S.3       11 UNK        -0.2682 
      8 C8        -80.0820   28.7787  -71.5411 C.3       11 UNK         0.0289 
      9 C9        -78.9139   29.5298  -72.1638 C.ar      11 UNK        -0.0687 
     10 C10       -79.0869   30.2436  -73.3536 C.ar      11 UNK        -0.0823 
     11 C11       -78.0274   30.9663  -73.9117 C.ar      11 UNK        -0.0830 
     12 C12       -76.7789   30.9549  -73.2814 C.ar      11 UNK        -0.1021 
     13 C13       -76.5963   30.2512  -72.0861 C.ar      11 UNK        -0.0753 
     14 C14       -77.6679   29.5454  -71.5307 C.ar      11 UNK        -0.0933 
     15 C15       -75.2524   30.2715  -71.3751 C.3       11 UNK         0.0166 
     16 S16       -74.3779   28.6947  -71.5872 S.3       11 UNK        -0.2615 
     17 C17       -72.8077   29.0472  -70.7246 C.3       11 UNK        -0.0865 
     18 CA        -71.6928   29.5405  -71.6839 C.3       10 UNK         0.0862 
     19 C         -70.3911   29.8835  -70.9027 C.2       10 UNK         0.5551 
     20 N         -69.2640   29.2337  -71.1665 N.am      10 UNK        -0.7319 
     21 O         -70.4055   30.7619  -70.0438 O.2       10 UNK        -0.5018 
     22 N         -71.5107   28.6169  -72.8137 N.am      10 UNK        -0.4509 
     23 C         -70.9977   28.9323  -74.0057 C.2       10 UNK         0.4899 
     24 O         -70.5479   30.0443  -74.2835 O.2       10 UNK        -0.4839 
     25 CA        -71.0036   27.8377  -75.0875 C.3       9 UNK         0.0222 
     26 CB        -69.7031   27.0121  -75.0565 C.3       9 UNK        -0.1966 
     27 N         -72.1951   26.9754  -75.0867 N.am      9 UNK        -0.4218 
     28 C         -72.5810   26.0455  -74.1987 C.2       9 UNK         0.5020 
     29 O         -71.9814   25.8049  -73.1499 O.2       9 UNK        -0.5274 
     30 CA        -73.8555   25.2479  -74.5334 C.3       8 UNK         0.0270 
     31 CB        -75.0999   25.9346  -73.9474 C.3       8 UNK        -0.1976 
     32 N         -74.0464   25.0561  -75.9720 N.am      8 UNK        -0.4313 
     33 C         -73.2637   24.3096  -76.7639 C.2       8 UNK         0.5041 
     34 O         -72.3211   23.6287  -76.3581 O.2       8 UNK        -0.5577 
     35 CA        -73.5727   24.3516  -78.2678 C.3       7 UNK         0.0284 
     36 CB        -74.7259   23.3978  -78.6218 C.3       7 UNK        -0.1958 
     37 N         -73.9023   25.7102  -78.7040 N.am      7 UNK        -0.4454 
     38 C         -72.9947   26.6528  -78.9935 C.2       7 UNK         0.5089 
     39 O         -71.7792   26.4586  -78.9851 O.2       7 UNK        -0.5125 
     40 CA        -73.5254   28.0526  -79.3554 C.3       6 UNK         0.0408 
     41 CB        -73.6689   28.1914  -80.8792 C.3       6 UNK        -0.1791 
     42 N         -74.8043   28.3795  -78.7183 N.am      6 UNK        -0.4762 
     43 C         -74.9625   28.6262  -77.4093 C.2       6 UNK         0.5007 
     44 O         -74.0403   28.6055  -76.5956 O.2       6 UNK        -0.5032 
     45 CA        -76.4041   28.8920  -76.9260 C.3       5 UNK         0.0783 
     46 C46       -76.7566   30.3886  -77.1119 C.3       11 UNK        -0.0857 
     47 S47       -78.4775   30.7877  -76.6515 S.3       11 UNK        -0.2512 
     48 C48       -78.2583   31.8063  -75.1600 C.3       11 UNK         0.0225 
     49 N         -77.3977   28.0025  -77.5482 N.am      5 UNK        -0.4615 
     50 C         -77.3575   26.6655  -77.5329 C.2       4 UNK         0.5053 
     51 O         -76.3989   26.0155  -77.1121 O.2       4 UNK        -0.5105 
     52 CA        -78.5669   25.9232  -78.1249 C.3       4 UNK         0.0263 
     53 CB        -78.3674   25.7061  -79.6336 C.3       4 UNK        -0.1981 
     54 N         -78.7516   24.6229  -77.4740 N.am      4 UNK        -0.4224 
     55 C         -79.0767   24.4692  -76.1837 C.2       3 UNK         0.4895 
     56 O         -79.4283   25.3976  -75.4481 O.2       3 UNK        -0.5091 
     57 CA        -78.9621   23.0479  -75.6143 C.3       3 UNK         0.0250 
     58 CB        -77.5123   22.5234  -75.6950 C.3       3 UNK        -0.1996 
     59 N         -79.4005   23.0954  -74.2249 N.am      3 UNK        -0.4254 
     60 C         -79.7627   22.0676  -73.4516 C.2       2 UNK         0.5004 
     61 O         -79.7598   20.8927  -73.8206 O.2       2 UNK        -0.5226 
     62 CA        -80.2009   22.4115  -72.0173 C.3       2 UNK         0.0269 
     63 CB        -79.0305   22.2169  -71.0393 C.3       2 UNK        -0.1926 
     64 N         -80.7016   23.7852  -71.8952 N.am      2 UNK        -0.4687 
     65 C         -81.9312   24.1803  -72.2513 C.2       1 UNK         0.5165 
     66 O         -82.7872   23.3995  -72.6764 O.2       1 UNK        -0.5079 
     67 H67       -86.1958   26.1043  -71.4960 H         1 UNK         0.0900 
     68 H68       -86.6071   25.4660  -73.0889 H         1 UNK         0.0900 
     69 H69       -86.4251   27.2067  -72.8545 H         1 UNK         0.0900 
     70 H70       -84.0514   25.7417  -71.0082 H         1 UNK         0.2959 
     71 H71       -81.9557   26.1395  -73.0583 H         1 UNK         0.1079 
     72 H72       -82.0119   27.2618  -70.6138 H         1 UNK         0.0837 
     73 H73       -81.3319   25.7568  -70.1003 H         1 UNK         0.0837 
     74 H74       -80.2212   29.1169  -70.5132 H         1 UNK         0.0685 
     75 H75       -81.0079   29.0073  -72.0718 H         1 UNK         0.0685 
     76 H76       -80.0525   30.2535  -73.8411 H         1 UNK         0.1434 
     77 H77       -75.9558   31.5130  -73.7066 H         1 UNK         0.1329 
     78 H78       -77.5305   29.0023  -70.6055 H         1 UNK         0.1335 
     79 H79       -75.4038   30.4642  -70.3119 H         1 UNK         0.0680 
     80 H80       -74.6292   31.0829  -71.7543 H         1 UNK         0.0680 
     81 H81       -72.4906   28.1327  -70.2198 H         1 UNK         0.1032 
     82 H82       -72.9898   29.7775  -69.9336 H         1 UNK         0.1032 
     83 H83       -72.0345   30.4884  -72.1043 H         1 UNK         0.0461 
     84 H84       -69.2473   28.5150  -71.8720 H         1 UNK         0.3453 
     85 H85       -68.4257   29.4660  -70.6575 H         1 UNK         0.3453 
     86 H86       -71.8219   27.6603  -72.6746 H         1 UNK         0.2984 
     87 H87       -71.0345   28.3560  -76.0473 H         1 UNK         0.0554 
     88 H88       -69.6780   26.2855  -75.8688 H         1 UNK         0.0847 
     89 H89       -69.5834   26.4701  -74.1181 H         1 UNK         0.0847 
     90 H90       -68.8309   27.6570  -75.1709 H         1 UNK         0.0847 
     91 H91       -72.8492   27.1858  -75.8343 H         1 UNK         0.3141 
     92 H92       -73.7603   24.2613  -74.0756 H         1 UNK         0.0743 
     93 H93       -76.0097   25.3783  -74.1737 H         1 UNK         0.0784 
     94 H94       -75.0273   26.0073  -72.8617 H         1 UNK         0.0784 
     95 H95       -75.2232   26.9467  -74.3351 H         1 UNK         0.0784 
     96 H96       -74.8512   25.5212  -76.3922 H         1 UNK         0.3213 
     97 H97       -72.6817   24.0134  -78.8018 H         1 UNK         0.0855 
     98 H98       -75.6574   23.6858  -78.1355 H         1 UNK         0.0814 
     99 H99       -74.4970   22.3782  -78.3088 H         1 UNK         0.0814 
    100 H100      -74.9036   23.3744  -79.6969 H         1 UNK         0.0814 
    101 H101      -74.8772   25.9766  -78.6601 H         1 UNK         0.3105 
    102 H102      -72.7847   28.7809  -79.0177 H         1 UNK         0.0547 
    103 H103      -72.7230   27.9809  -81.3804 H         1 UNK         0.0837 
    104 H104      -74.4105   27.4999  -81.2812 H         1 UNK         0.0837 
    105 H105      -73.9633   29.2025  -81.1605 H         1 UNK         0.0837 
    106 H106      -75.6206   28.4058  -79.3128 H         1 UNK         0.3020 
    107 H107      -76.4217   28.6756  -75.8550 H         1 UNK         0.1245 
    108 H108      -76.6259   30.6857  -78.1545 H         1 UNK         0.0781 
    109 H109      -76.0708   31.0118  -76.5347 H         1 UNK         0.0781 
    110 H110      -79.1588   32.4054  -75.0170 H         1 UNK         0.0836 
    111 H111      -77.4481   32.5211  -75.3121 H         1 UNK         0.0836 
    112 H112      -78.2191   28.4633  -77.9133 H         1 UNK         0.3022 
    113 H113      -79.4659   26.5218  -77.9630 H         1 UNK         0.0747 
    114 H114      -79.2222   25.1949  -80.0770 H         1 UNK         0.0793 
    115 H115      -78.2559   26.6573  -80.1558 H         1 UNK         0.0793 
    116 H116      -77.4760   25.1128  -79.8431 H         1 UNK         0.0793 
    117 H117      -78.4617   23.8123  -78.0003 H         1 UNK         0.3047 
    118 H118      -79.6306   22.3926  -76.1763 H         1 UNK         0.0822 
    119 H119      -77.1924   22.4008  -76.7295 H         1 UNK         0.0807 
    120 H120      -77.4094   21.5492  -75.2171 H         1 UNK         0.0807 
    121 H121      -76.8099   23.2058  -75.2144 H         1 UNK         0.0807 
    122 H122      -79.4867   24.0388  -73.8654 H         1 UNK         0.2946 
    123 H123      -80.9979   21.7163  -71.7423 H         1 UNK         0.1144 
    124 H124      -78.6473   21.1965  -71.0881 H         1 UNK         0.0793 
    125 H125      -78.2001   22.8879  -71.2631 H         1 UNK         0.0793 
    126 H126      -79.3400   22.3962  -70.0095 H         1 UNK         0.0793 
    127 H127      -80.0528   24.4852  -71.5581 H         1 UNK         0.2896 
@<TRIPOS>BOND
     1    1    2 1    
     2    1   67 1    
     3    1   68 1    
     4    1   69 1    
     5    2    3 2    
     6    2    4 am   BACKBONE|DICT|INTERRES
     7    4    5 1    
     8    4   70 1    
     9    5    6 1    
    10    5   65 1    
    11    5   71 1    
    12    6    7 1    
    13    6   72 1    
    14    6   73 1    
    15    7    8 1    
    16    8    9 1    
    17    8   74 1    
    18    8   75 1    
    19    9   10 ar   
    20    9   14 ar   
    21   10   11 ar   
    22   10   76 1    
    23   11   12 ar   
    24   11   48 1    
    25   12   13 ar   
    26   12   77 1    
    27   13   14 ar   
    28   13   15 1    
    29   14   78 1    
    30   15   16 1    
    31   15   79 1    
    32   15   80 1    
    33   16   17 1    
    34   17   18 1    
    35   17   81 1    
    36   17   82 1    
    37   18   19 1    
    38   18   22 1    
    39   18   83 1    
    40   19   20 am   BACKBONE|DICT|INTERRES
    41   19   21 2    
    42   20   84 1    
    43   20   85 1    
    44   22   23 am   BACKBONE|DICT|INTERRES
    45   22   86 1    
    46   23   24 2    
    47   23   25 1    
    48   25   26 1    
    49   25   27 1    
    50   25   87 1    
    51   26   88 1    
    52   26   89 1    
    53   26   90 1    
    54   27   28 am   BACKBONE|DICT|INTERRES
    55   27   91 1    
    56   28   29 2    
    57   28   30 1    
    58   30   31 1    
    59   30   32 1    
    60   30   92 1    
    61   31   93 1    
    62   31   94 1    
    63   31   95 1    
    64   32   33 am   BACKBONE|DICT|INTERRES
    65   32   96 1    
    66   33   34 2    
    67   33   35 1    
    68   35   36 1    
    69   35   37 1    
    70   35   97 1    
    71   36   98 1    
    72   36   99 1    
    73   36  100 1    
    74   37   38 am   BACKBONE|DICT|INTERRES
    75   37  101 1    
    76   38   39 2    
    77   38   40 1    
    78   40   41 1    
    79   40   42 1    
    80   40  102 1    
    81   41  103 1    
    82   41  104 1    
    83   41  105 1    
    84   42   43 am   BACKBONE|DICT|INTERRES
    85   42  106 1    
    86   43   44 2    
    87   43   45 1    
    88   45   46 1    
    89   45   49 1    
    90   45  107 1    
    91   46   47 1    
    92   46  108 1    
    93   46  109 1    
    94   47   48 1    
    95   48  110 1    
    96   48  111 1    
    97   49   50 am   BACKBONE|DICT|INTERRES
    98   49  112 1    
    99   50   51 2    
   100   50   52 1    
   101   52   53 1    
   102   52   54 1    
   103   52  113 1    
   104   53  114 1    
   105   53  115 1    
   106   53  116 1    
   107   54   55 am   BACKBONE|DICT|INTERRES
   108   54  117 1    
   109   55   56 2    
   110   55   57 1    
   111   57   58 1    
   112   57   59 1    
   113   57  118 1    
   114   58  119 1    
   115   58  120 1    
   116   58  121 1    
   117   59   60 am   BACKBONE|DICT|INTERRES
   118   59  122 1    
   119   60   61 2    
   120   60   62 1    
   121   62   63 1    
   122   62   64 1    
   123   62  123 1    
   124   63  124 1    
   125   63  125 1    
   126   63  126 1    
   127   64   65 am   BACKBONE|DICT|INTERRES
   128   64  127 1    
   129   65   66 2    
@<TRIPOS>SUBSTRUCTURE
     1 UNK         1 GROUP             0       ****    0 ROOT    
