@<TRIPOS>MOLECULE
3R135
127   129    1
SMALL
USER_CHARGES


@<TRIPOS>ATOM
      1 CA        -84.3046   27.6932  -72.2941 C.3       0 UNK        -0.1998 
      2 C         -83.8207   28.1397  -73.6655 C.2       0 UNK         0.4909 
      3 O         -84.6190   28.2245  -74.5991 O.2       0 UNK        -0.5240 
      4 N         -82.5191   28.4288  -73.7910 N.am      1 UNK        -0.4739 
      5 CA        -81.8709   28.8465  -75.0413 C.3       1 UNK         0.0864 
      6 C6        -80.4786   29.4722  -74.7852 C.3       11 UNK        -0.0881 
      7 S7        -80.5630   31.0591  -73.8886 S.3       11 UNK        -0.2682 
      8 C8        -80.2993   30.5695  -72.1507 C.3       11 UNK         0.0289 
      9 C9        -78.9844   29.8331  -71.9236 C.ar      11 UNK        -0.0687 
     10 C10       -78.9885   28.5180  -71.4428 C.ar      11 UNK        -0.0823 
     11 C11       -77.7871   27.8463  -71.1958 C.ar      11 UNK        -0.0830 
     12 C12       -76.5799   28.4981  -71.4545 C.ar      11 UNK        -0.1021 
     13 C13       -76.5568   29.8104  -71.9338 C.ar      11 UNK        -0.0753 
     14 C14       -77.7645   30.4750  -72.1643 C.ar      11 UNK        -0.0933 
     15 C15       -75.2246   30.4926  -72.2163 C.3       11 UNK         0.0166 
     16 S16       -74.0777   30.3515  -70.8046 S.3       11 UNK        -0.2615 
     17 C17       -72.4734   30.7970  -71.5557 C.3       11 UNK        -0.0865 
     18 CA        -71.7282   29.6417  -72.2947 C.3       10 UNK         0.0862 
     19 C         -71.5543   28.3376  -71.4679 C.2       10 UNK         0.5551 
     20 N         -70.9052   28.4184  -70.3143 N.am      10 UNK        -0.7319 
     21 O         -71.9889   27.2554  -71.8593 O.2       10 UNK        -0.5018 
     22 N         -72.2925   29.3693  -73.6202 N.am      10 UNK        -0.4509 
     23 C         -72.1372   30.1517  -74.6934 C.2       10 UNK         0.4899 
     24 O         -71.5090   31.2121  -74.6829 O.2       10 UNK        -0.4839 
     25 CA        -72.7990   29.6599  -75.9918 C.3       9 UNK         0.0222 
     26 CB        -72.4531   30.5248  -77.2221 C.3       9 UNK        -0.1966 
     27 N         -72.5249   28.2453  -76.2537 N.am      9 UNK        -0.4218 
     28 C         -71.3376   27.6523  -76.4506 C.2       9 UNK         0.5020 
     29 O         -70.2569   28.2433  -76.4543 O.2       9 UNK        -0.5274 
     30 CA        -71.3555   26.1292  -76.6777 C.3       8 UNK         0.0270 
     31 CB        -71.0088   25.3989  -75.3698 C.3       8 UNK        -0.1976 
     32 N         -72.6426   25.6362  -77.1785 N.am      8 UNK        -0.4313 
     33 C         -73.1276   25.8669  -78.4073 C.2       8 UNK         0.5041 
     34 O         -72.4927   26.4281  -79.3009 O.2       8 UNK        -0.5577 
     35 CA        -74.5826   25.4381  -78.6687 C.3       7 UNK         0.0284 
     36 CB        -74.6653   23.9366  -78.9841 C.3       7 UNK        -0.1958 
     37 N         -75.4745   25.7657  -77.5508 N.am      7 UNK        -0.4454 
     38 C         -75.7712   27.0141  -77.1567 C.2       7 UNK         0.5089 
     39 O         -75.3672   28.0277  -77.7241 O.2       7 UNK        -0.5125 
     40 CA        -76.6382   27.1610  -75.8987 C.3       6 UNK         0.0408 
     41 CB        -78.1246   27.0598  -76.2597 C.3       6 UNK        -0.1791 
     42 N         -76.3083   26.1504  -74.8960 N.am      6 UNK        -0.4762 
     43 C         -75.2238   26.1865  -74.1075 C.2       6 UNK         0.5007 
     44 O         -74.4064   27.1089  -74.1133 O.2       6 UNK        -0.5032 
     45 CA        -74.9793   24.9514  -73.2113 C.3       5 UNK         0.0783 
     46 C46       -75.6207   25.0736  -71.8079 C.3       11 UNK        -0.0857 
     47 S47       -77.4507   25.1393  -71.8127 S.3       11 UNK        -0.2512 
     48 C48       -77.7937   26.4467  -70.5912 C.3       11 UNK         0.0225 
     49 N         -75.3684   23.6987  -73.8655 N.am      5 UNK        -0.4615 
     50 C         -74.7536   23.1824  -74.9353 C.2       4 UNK         0.5053 
     51 O         -73.7882   23.7086  -75.4849 O.2       4 UNK        -0.5105 
     52 CA        -75.3211   21.8759  -75.5108 C.3       4 UNK         0.0263 
     53 CB        -74.6626   20.6651  -74.8312 C.3       4 UNK        -0.1981 
     54 N         -76.7794   21.7500  -75.4250 N.am      4 UNK        -0.4224 
     55 C         -77.6729   22.5981  -75.9544 C.2       3 UNK         0.4895 
     56 O         -77.3637   23.6541  -76.5137 O.2       3 UNK        -0.5091 
     57 CA        -79.1455   22.1461  -75.8892 C.3       3 UNK         0.0250 
     58 CB        -79.5332   21.5350  -74.5218 C.3       3 UNK        -0.1996 
     59 N         -80.0906   23.1940  -76.2975 N.am      3 UNK        -0.4254 
     60 C         -80.4244   24.3035  -75.6238 C.2       2 UNK         0.5004 
     61 O         -79.9937   24.6012  -74.5068 O.2       2 UNK        -0.5226 
     62 CA        -81.4336   25.2286  -76.3205 C.3       2 UNK         0.0269 
     63 CB        -82.8135   24.5581  -76.4623 C.3       2 UNK        -0.1926 
     64 N         -81.5819   26.4577  -75.5456 N.am      2 UNK        -0.4687 
     65 C         -81.7601   27.6840  -76.0510 C.2       1 UNK         0.5165 
     66 O         -81.8387   27.9197  -77.2576 O.2       1 UNK        -0.5079 
     67 H67       -85.0750   28.3719  -71.9292 H         1 UNK         0.0900 
     68 H68       -84.7325   26.6929  -72.3552 H         1 UNK         0.0900 
     69 H69       -83.4972   27.6726  -71.5623 H         1 UNK         0.0900 
     70 H70       -81.9133   28.3464  -72.9891 H         1 UNK         0.2959 
     71 H71       -82.5028   29.6051  -75.5094 H         1 UNK         0.1079 
     72 H72       -79.8310   28.7758  -74.2524 H         1 UNK         0.0837 
     73 H73       -79.9762   29.6797  -75.7323 H         1 UNK         0.0837 
     74 H74       -81.1465   29.9704  -71.8157 H         1 UNK         0.0685 
     75 H75       -80.3067   31.4690  -71.5337 H         1 UNK         0.0685 
     76 H76       -79.9272   28.0225  -71.2373 H         1 UNK         0.1434 
     77 H77       -75.6422   28.0004  -71.2643 H         1 UNK         0.1329 
     78 H78       -77.7605   31.4911  -72.5348 H         1 UNK         0.1335 
     79 H79       -74.7945   30.0225  -73.0992 H         1 UNK         0.0680 
     80 H80       -75.3647   31.5476  -72.4563 H         1 UNK         0.0680 
     81 H81       -71.8391   31.1722  -70.7515 H         1 UNK         0.1032 
     82 H82       -72.6163   31.6517  -72.2182 H         1 UNK         0.1032 
     83 H83       -70.7064   29.9826  -72.4742 H         1 UNK         0.0461 
     84 H84       -70.5403   29.2956  -69.9783 H         1 UNK         0.3453 
     85 H85       -70.7816   27.5822  -69.7655 H         1 UNK         0.3453 
     86 H86       -72.8093   28.4973  -73.6966 H         1 UNK         0.2984 
     87 H87       -73.8757   29.7332  -75.8310 H         1 UNK         0.0554 
     88 H88       -72.7625   31.5596  -77.0714 H         1 UNK         0.0847 
     89 H89       -72.9629   30.1612  -78.1146 H         1 UNK         0.0847 
     90 H90       -71.3820   30.5319  -77.4261 H         1 UNK         0.0847 
     91 H91       -73.3384   27.6456  -76.2340 H         1 UNK         0.3141 
     92 H92       -70.5888   25.8945  -77.4189 H         1 UNK         0.0743 
     93 H93       -70.0368   25.7163  -74.9900 H         1 UNK         0.0784 
     94 H94       -71.7447   25.6001  -74.5895 H         1 UNK         0.0784 
     95 H95       -70.9633   24.3197  -75.5170 H         1 UNK         0.0784 
     96 H96       -73.1950   25.0731  -76.5323 H         1 UNK         0.3213 
     97 H97       -74.9388   25.9872  -79.5431 H         1 UNK         0.0855 
     98 H98       -74.2522   23.3309  -78.1786 H         1 UNK         0.0814 
     99 H99       -74.1006   23.7002  -79.8868 H         1 UNK         0.0814 
    100 H100      -75.6948   23.6189  -79.1516 H         1 UNK         0.0814 
    101 H101      -75.9076   24.9914  -77.0570 H         1 UNK         0.3105 
    102 H102      -76.4585   28.1476  -75.4653 H         1 UNK         0.0547 
    103 H103      -78.3459   26.1492  -76.8166 H         1 UNK         0.0837 
    104 H104      -78.4345   27.9024  -76.8788 H         1 UNK         0.0837 
    105 H105      -78.7433   27.0588  -75.3641 H         1 UNK         0.0837 
    106 H106      -76.9129   25.3401  -74.8496 H         1 UNK         0.3020 
    107 H107      -73.8973   24.9068  -73.0619 H         1 UNK         0.1245 
    108 H108      -75.2012   25.9277  -71.2803 H         1 UNK         0.0781 
    109 H109      -75.3301   24.2111  -71.2061 H         1 UNK         0.0781 
    110 H110      -77.0734   26.3899  -69.7737 H         1 UNK         0.0836 
    111 H111      -78.7663   26.2423  -70.1411 H         1 UNK         0.0836 
    112 H112      -76.1722   23.2224  -73.4830 H         1 UNK         0.3022 
    113 H113      -75.0610   21.8477  -76.5699 H         1 UNK         0.0747 
    114 H114      -74.9646   19.7302  -75.3038 H         1 UNK         0.0793 
    115 H115      -73.5751   20.7226  -74.9002 H         1 UNK         0.0793 
    116 H116      -74.9190   20.6059  -73.7726 H         1 UNK         0.0793 
    117 H117      -77.1271   20.9084  -74.9887 H         1 UNK         0.3047 
    118 H118      -79.2473   21.3595  -76.6383 H         1 UNK         0.0822 
    119 H119      -80.6013   21.3223  -74.4730 H         1 UNK         0.0807 
    120 H120      -79.2899   22.2016  -73.6933 H         1 UNK         0.0807 
    121 H121      -79.0175   20.5913  -74.3428 H         1 UNK         0.0807 
    122 H122      -80.4846   23.0693  -77.2196 H         1 UNK         0.2946 
    123 H123      -81.0360   25.4629  -77.3109 H         1 UNK         0.1144 
    124 H124      -83.5287   25.2249  -76.9446 H         1 UNK         0.0793 
    125 H125      -83.2238   24.2766  -75.4917 H         1 UNK         0.0793 
    126 H126      -82.7592   23.6542  -77.0699 H         1 UNK         0.0793 
    127 H127      -81.4497   26.3456  -74.5489 H         1 UNK         0.2896 
@<TRIPOS>BOND
     1    1    2 1    
     2    1   67 1    
     3    1   68 1    
     4    1   69 1    
     5    2    3 2    
     6    2    4 am   BACKBONE|DICT|INTERRES
     7    4    5 1    
     8    4   70 1    
     9    5    6 1    
    10    5   65 1    
    11    5   71 1    
    12    6    7 1    
    13    6   72 1    
    14    6   73 1    
    15    7    8 1    
    16    8    9 1    
    17    8   74 1    
    18    8   75 1    
    19    9   10 ar   
    20    9   14 ar   
    21   10   11 ar   
    22   10   76 1    
    23   11   12 ar   
    24   11   48 1    
    25   12   13 ar   
    26   12   77 1    
    27   13   14 ar   
    28   13   15 1    
    29   14   78 1    
    30   15   16 1    
    31   15   79 1    
    32   15   80 1    
    33   16   17 1    
    34   17   18 1    
    35   17   81 1    
    36   17   82 1    
    37   18   19 1    
    38   18   22 1    
    39   18   83 1    
    40   19   20 am   BACKBONE|DICT|INTERRES
    41   19   21 2    
    42   20   84 1    
    43   20   85 1    
    44   22   23 am   BACKBONE|DICT|INTERRES
    45   22   86 1    
    46   23   24 2    
    47   23   25 1    
    48   25   26 1    
    49   25   27 1    
    50   25   87 1    
    51   26   88 1    
    52   26   89 1    
    53   26   90 1    
    54   27   28 am   BACKBONE|DICT|INTERRES
    55   27   91 1    
    56   28   29 2    
    57   28   30 1    
    58   30   31 1    
    59   30   32 1    
    60   30   92 1    
    61   31   93 1    
    62   31   94 1    
    63   31   95 1    
    64   32   33 am   BACKBONE|DICT|INTERRES
    65   32   96 1    
    66   33   34 2    
    67   33   35 1    
    68   35   36 1    
    69   35   37 1    
    70   35   97 1    
    71   36   98 1    
    72   36   99 1    
    73   36  100 1    
    74   37   38 am   BACKBONE|DICT|INTERRES
    75   37  101 1    
    76   38   39 2    
    77   38   40 1    
    78   40   41 1    
    79   40   42 1    
    80   40  102 1    
    81   41  103 1    
    82   41  104 1    
    83   41  105 1    
    84   42   43 am   BACKBONE|DICT|INTERRES
    85   42  106 1    
    86   43   44 2    
    87   43   45 1    
    88   45   46 1    
    89   45   49 1    
    90   45  107 1    
    91   46   47 1    
    92   46  108 1    
    93   46  109 1    
    94   47   48 1    
    95   48  110 1    
    96   48  111 1    
    97   49   50 am   BACKBONE|DICT|INTERRES
    98   49  112 1    
    99   50   51 2    
   100   50   52 1    
   101   52   53 1    
   102   52   54 1    
   103   52  113 1    
   104   53  114 1    
   105   53  115 1    
   106   53  116 1    
   107   54   55 am   BACKBONE|DICT|INTERRES
   108   54  117 1    
   109   55   56 2    
   110   55   57 1    
   111   57   58 1    
   112   57   59 1    
   113   57  118 1    
   114   58  119 1    
   115   58  120 1    
   116   58  121 1    
   117   59   60 am   BACKBONE|DICT|INTERRES
   118   59  122 1    
   119   60   61 2    
   120   60   62 1    
   121   62   63 1    
   122   62   64 1    
   123   62  123 1    
   124   63  124 1    
   125   63  125 1    
   126   63  126 1    
   127   64   65 am   BACKBONE|DICT|INTERRES
   128   64  127 1    
   129   65   66 2    
@<TRIPOS>SUBSTRUCTURE
     1 UNK         1 GROUP             0       ****    0 ROOT    
