@<TRIPOS>MOLECULE
3R135
127   129    1
SMALL
USER_CHARGES


@<TRIPOS>ATOM
      1 CA        -76.7015   29.8780  -75.9787 C.3       0 UNK        -0.1998 
      2 C         -78.0762   29.5359  -75.4271 C.2       0 UNK         0.4909 
      3 O         -79.0713   30.0939  -75.8900 O.2       0 UNK        -0.5240 
      4 N         -78.1328   28.6222  -74.4470 N.am      1 UNK        -0.4739 
      5 CA        -79.3607   28.0557  -73.8720 C.3       1 UNK         0.0864 
      6 C6        -80.2188   29.1141  -73.1196 C.3       11 UNK        -0.0881 
      7 S7        -81.2227   28.3787  -71.7822 S.3       11 UNK        -0.2682 
      8 C8        -80.2626   28.8119  -70.2933 C.3       11 UNK         0.0289 
      9 C9        -78.8833   28.1652  -70.2792 C.ar      11 UNK        -0.0687 
     10 C10       -78.7590   26.7733  -70.1979 C.ar      11 UNK        -0.0823 
     11 C11       -77.4962   26.1728  -70.2080 C.ar      11 UNK        -0.0830 
     12 C12       -76.3547   26.9765  -70.2566 C.ar      11 UNK        -0.1021 
     13 C13       -76.4646   28.3665  -70.3288 C.ar      11 UNK        -0.0753 
     14 C14       -77.7312   28.9578  -70.3459 C.ar      11 UNK        -0.0933 
     15 C15       -75.2027   29.2108  -70.3937 C.3       11 UNK         0.0166 
     16 S16       -74.5386   29.2538  -72.0868 S.3       11 UNK        -0.2615 
     17 C17       -75.1158   30.8778  -72.6959 C.3       11 UNK        -0.0865 
     18 CA        -74.0710   31.5856  -73.6006 C.3       10 UNK         0.0862 
     19 C         -72.8524   32.1206  -72.7891 C.2       10 UNK         0.5551 
     20 N         -71.6329   31.6451  -73.0186 N.am      10 UNK        -0.7319 
     21 O         -73.0198   32.9957  -71.9431 O.2       10 UNK        -0.5018 
     22 N         -73.7152   30.7489  -74.7550 N.am      10 UNK        -0.4509 
     23 C         -73.1894   31.1930  -75.9027 C.2       10 UNK         0.4899 
     24 O         -73.0542   32.3877  -76.1705 O.2       10 UNK        -0.4839 
     25 CA        -72.7507   30.1241  -76.9277 C.3       9 UNK         0.0222 
     26 CB        -71.5645   30.5983  -77.7930 C.3       9 UNK        -0.1966 
     27 N         -72.4636   28.8003  -76.3528 N.am      9 UNK        -0.4218 
     28 C         -71.5618   28.5013  -75.4007 C.2       9 UNK         0.5020 
     29 O         -70.8692   29.3472  -74.8320 O.2       9 UNK        -0.5274 
     30 CA        -71.4180   27.0256  -74.9802 C.3       8 UNK         0.0270 
     31 CB        -71.8793   26.8277  -73.5263 C.3       8 UNK        -0.1976 
     32 N         -72.1568   26.1043  -75.8488 N.am      8 UNK        -0.4313 
     33 C         -71.6924   25.6285  -77.0146 C.2       8 UNK         0.5041 
     34 O         -70.5623   25.8669  -77.4424 O.2       8 UNK        -0.5577 
     35 CA        -72.6382   24.7560  -77.8652 C.3       7 UNK         0.0284 
     36 CB        -72.3240   23.2661  -77.6561 C.3       7 UNK        -0.1958 
     37 N         -74.0629   24.9852  -77.6092 N.am      7 UNK        -0.4454 
     38 C         -74.7054   26.1469  -77.8048 C.2       7 UNK         0.5089 
     39 O         -74.1702   27.1537  -78.2687 O.2       7 UNK        -0.5125 
     40 CA        -76.1695   26.2288  -77.3356 C.3       6 UNK         0.0408 
     41 CB        -77.1237   25.9470  -78.5050 C.3       6 UNK        -0.1791 
     42 N         -76.4980   25.3407  -76.2160 N.am      6 UNK        -0.4762 
     43 C         -75.8545   25.2914  -75.0373 C.2       6 UNK         0.5007 
     44 O         -74.9052   26.0219  -74.7544 O.2       6 UNK        -0.5032 
     45 CA        -76.3326   24.2490  -74.0025 C.3       5 UNK         0.0783 
     46 C46       -77.3668   24.9354  -73.0832 C.3       11 UNK        -0.0857 
     47 S47       -78.0144   23.8841  -71.7356 S.3       11 UNK        -0.2512 
     48 C48       -77.3493   24.6561  -70.2186 C.3       11 UNK         0.0225 
     49 N         -76.9015   23.0376  -74.5990 N.am      5 UNK        -0.4615 
     50 C         -76.4145   22.2824  -75.5937 C.2       4 UNK         0.5053 
     51 O         -75.2912   22.4192  -76.0795 O.2       4 UNK        -0.5105 
     52 CA        -77.3891   21.2478  -76.1971 C.3       4 UNK         0.0263 
     53 CB        -77.0567   19.8371  -75.6863 C.3       4 UNK        -0.1981 
     54 N         -78.8085   21.5403  -75.9292 N.am      4 UNK        -0.4224 
     55 C         -79.4476   22.6676  -76.2826 C.2       3 UNK         0.4895 
     56 O         -78.9266   23.5501  -76.9703 O.2       3 UNK        -0.5091 
     57 CA        -80.8603   22.8833  -75.7119 C.3       3 UNK         0.0250 
     58 CB        -80.9976   22.3722  -74.2579 C.3       3 UNK        -0.1996 
     59 N         -81.1566   24.3136  -75.7792 N.am      3 UNK        -0.4254 
     60 C         -82.3401   24.9086  -75.6069 C.2       2 UNK         0.5004 
     61 O         -83.3782   24.2980  -75.3442 O.2       2 UNK        -0.5226 
     62 CA        -82.3606   26.4460  -75.7486 C.3       2 UNK         0.0269 
     63 CB        -83.7737   27.0370  -75.5832 C.3       2 UNK        -0.1926 
     64 N         -81.4603   27.1226  -74.8068 N.am      2 UNK        -0.4687 
     65 C         -80.1299   27.2191  -74.9281 C.2       1 UNK         0.5165 
     66 O         -79.5035   26.6561  -75.8289 O.2       1 UNK        -0.5079 
     67 H67       -76.4576   30.9172  -75.7607 H         1 UNK         0.0900 
     68 H68       -76.6877   29.7469  -77.0604 H         1 UNK         0.0900 
     69 H69       -75.9271   29.2412  -75.5523 H         1 UNK         0.0900 
     70 H70       -77.2748   28.1995  -74.1227 H         1 UNK         0.2959 
     71 H71       -79.0116   27.3390  -73.1296 H         1 UNK         0.1079 
     72 H72       -79.5701   29.8717  -72.6771 H         1 UNK         0.0837 
     73 H73       -80.8690   29.6603  -73.8056 H         1 UNK         0.0837 
     74 H74       -80.8158   28.4848  -69.4119 H         1 UNK         0.0685 
     75 H75       -80.1871   29.8980  -70.2203 H         1 UNK         0.0685 
     76 H76       -79.6464   26.1558  -70.1628 H         1 UNK         0.1434 
     77 H77       -75.3736   26.5212  -70.2677 H         1 UNK         0.1329 
     78 H78       -77.8182   30.0337  -70.4108 H         1 UNK         0.1335 
     79 H79       -75.3862   30.2168  -70.0148 H         1 UNK         0.0680 
     80 H80       -74.4457   28.7793  -69.7371 H         1 UNK         0.0680 
     81 H81       -75.3853   31.5253  -71.8599 H         1 UNK         0.1032 
     82 H82       -76.0432   30.7224  -73.2467 H         1 UNK         0.1032 
     83 H83       -74.5617   32.4762  -73.9981 H         1 UNK         0.0461 
     84 H84       -70.8559   32.0056  -72.4889 H         1 UNK         0.3453 
     85 H85       -71.4796   30.9106  -73.7015 H         1 UNK         0.3453 
     86 H86       -73.7497   29.7533  -74.5935 H         1 UNK         0.2984 
     87 H87       -73.6049   29.9804  -77.5909 H         1 UNK         0.0554 
     88 H88       -71.2851   29.8447  -78.5293 H         1 UNK         0.0847 
     89 H89       -70.6851   30.8171  -77.1864 H         1 UNK         0.0847 
     90 H90       -71.8148   31.5065  -78.3427 H         1 UNK         0.0847 
     91 H91       -72.9797   28.0358  -76.7750 H         1 UNK         0.3141 
     92 H92       -70.3545   26.7819  -75.0272 H         1 UNK         0.0743 
     93 H93       -72.9316   27.0790  -73.3973 H         1 UNK         0.0784 
     94 H94       -71.7391   25.7967  -73.2015 H         1 UNK         0.0784 
     95 H95       -71.3108   27.4619  -72.8446 H         1 UNK         0.0784 
     96 H96       -73.1086   25.8865  -75.5644 H         1 UNK         0.3213 
     97 H97       -72.4498   25.0027  -78.9123 H         1 UNK         0.0855 
     98 H98       -72.5131   22.9555  -76.6275 H         1 UNK         0.0814 
     99 H99       -71.2769   23.0521  -77.8749 H         1 UNK         0.0814 
    100 H100      -72.9265   22.6365  -78.3112 H         1 UNK         0.0814 
    101 H101      -74.5778   24.2175  -77.1919 H         1 UNK         0.3105 
    102 H102      -76.3448   27.2489  -76.9951 H         1 UNK         0.0547 
    103 H103      -76.9166   26.6061  -79.3491 H         1 UNK         0.0837 
    104 H104      -77.0341   24.9194  -78.8594 H         1 UNK         0.0837 
    105 H105      -78.1621   26.1098  -78.2151 H         1 UNK         0.0837 
    106 H106      -77.2877   24.7195  -76.3627 H         1 UNK         0.3020 
    107 H107      -75.4642   23.9524  -73.4112 H         1 UNK         0.1245 
    108 H108      -78.2323   25.2359  -73.6748 H         1 UNK         0.0781 
    109 H109      -76.9474   25.8567  -72.6814 H         1 UNK         0.0781 
    110 H110      -76.3018   24.3687  -70.1151 H         1 UNK         0.0836 
    111 H111      -77.8655   24.2388  -69.3531 H         1 UNK         0.0836 
    112 H112      -77.8207   22.8001  -74.2587 H         1 UNK         0.3022 
    113 H113      -77.2474   21.2663  -77.2796 H         1 UNK         0.0747 
    114 H114      -77.6764   19.0823  -76.1708 H         1 UNK         0.0793 
    115 H115      -76.0167   19.5817  -75.8956 H         1 UNK         0.0793 
    116 H116      -77.2021   19.7526  -74.6086 H         1 UNK         0.0793 
    117 H117      -79.3072   20.8620  -75.3712 H         1 UNK         0.3047 
    118 H118      -81.5636   22.3509  -76.3549 H         1 UNK         0.0822 
    119 H119      -80.8495   21.2943  -74.1908 H         1 UNK         0.0807 
    120 H120      -81.9910   22.5678  -73.8549 H         1 UNK         0.0807 
    121 H121      -80.2769   22.8504  -73.5939 H         1 UNK         0.0807 
    122 H122      -80.3589   24.8973  -76.0263 H         1 UNK         0.2946 
    123 H123      -82.0275   26.6701  -76.7649 H         1 UNK         0.1144 
    124 H124      -84.4701   26.5937  -76.2964 H         1 UNK         0.0793 
    125 H125      -83.7769   28.1130  -75.7585 H         1 UNK         0.0793 
    126 H126      -84.1714   26.8584  -74.5833 H         1 UNK         0.0793 
    127 H127      -81.8925   27.5603  -74.0035 H         1 UNK         0.2896 
@<TRIPOS>BOND
     1    1    2 1    
     2    1   67 1    
     3    1   68 1    
     4    1   69 1    
     5    2    3 2    
     6    2    4 am   BACKBONE|DICT|INTERRES
     7    4    5 1    
     8    4   70 1    
     9    5    6 1    
    10    5   65 1    
    11    5   71 1    
    12    6    7 1    
    13    6   72 1    
    14    6   73 1    
    15    7    8 1    
    16    8    9 1    
    17    8   74 1    
    18    8   75 1    
    19    9   10 ar   
    20    9   14 ar   
    21   10   11 ar   
    22   10   76 1    
    23   11   12 ar   
    24   11   48 1    
    25   12   13 ar   
    26   12   77 1    
    27   13   14 ar   
    28   13   15 1    
    29   14   78 1    
    30   15   16 1    
    31   15   79 1    
    32   15   80 1    
    33   16   17 1    
    34   17   18 1    
    35   17   81 1    
    36   17   82 1    
    37   18   19 1    
    38   18   22 1    
    39   18   83 1    
    40   19   20 am   BACKBONE|DICT|INTERRES
    41   19   21 2    
    42   20   84 1    
    43   20   85 1    
    44   22   23 am   BACKBONE|DICT|INTERRES
    45   22   86 1    
    46   23   24 2    
    47   23   25 1    
    48   25   26 1    
    49   25   27 1    
    50   25   87 1    
    51   26   88 1    
    52   26   89 1    
    53   26   90 1    
    54   27   28 am   BACKBONE|DICT|INTERRES
    55   27   91 1    
    56   28   29 2    
    57   28   30 1    
    58   30   31 1    
    59   30   32 1    
    60   30   92 1    
    61   31   93 1    
    62   31   94 1    
    63   31   95 1    
    64   32   33 am   BACKBONE|DICT|INTERRES
    65   32   96 1    
    66   33   34 2    
    67   33   35 1    
    68   35   36 1    
    69   35   37 1    
    70   35   97 1    
    71   36   98 1    
    72   36   99 1    
    73   36  100 1    
    74   37   38 am   BACKBONE|DICT|INTERRES
    75   37  101 1    
    76   38   39 2    
    77   38   40 1    
    78   40   41 1    
    79   40   42 1    
    80   40  102 1    
    81   41  103 1    
    82   41  104 1    
    83   41  105 1    
    84   42   43 am   BACKBONE|DICT|INTERRES
    85   42  106 1    
    86   43   44 2    
    87   43   45 1    
    88   45   46 1    
    89   45   49 1    
    90   45  107 1    
    91   46   47 1    
    92   46  108 1    
    93   46  109 1    
    94   47   48 1    
    95   48  110 1    
    96   48  111 1    
    97   49   50 am   BACKBONE|DICT|INTERRES
    98   49  112 1    
    99   50   51 2    
   100   50   52 1    
   101   52   53 1    
   102   52   54 1    
   103   52  113 1    
   104   53  114 1    
   105   53  115 1    
   106   53  116 1    
   107   54   55 am   BACKBONE|DICT|INTERRES
   108   54  117 1    
   109   55   56 2    
   110   55   57 1    
   111   57   58 1    
   112   57   59 1    
   113   57  118 1    
   114   58  119 1    
   115   58  120 1    
   116   58  121 1    
   117   59   60 am   BACKBONE|DICT|INTERRES
   118   59  122 1    
   119   60   61 2    
   120   60   62 1    
   121   62   63 1    
   122   62   64 1    
   123   62  123 1    
   124   63  124 1    
   125   63  125 1    
   126   63  126 1    
   127   64   65 am   BACKBONE|DICT|INTERRES
   128   64  127 1    
   129   65   66 2    
@<TRIPOS>SUBSTRUCTURE
     1 UNK         1 GROUP             0       ****    0 ROOT    
