@<TRIPOS>MOLECULE
3R135
127   129    1
SMALL
USER_CHARGES


@<TRIPOS>ATOM
      1 CA        -80.4256   24.6164  -68.9278 C.3       0 UNK        -0.1998 
      2 C         -81.2959   24.9935  -70.1174 C.2       0 UNK         0.4909 
      3 O         -82.4133   24.4906  -70.2439 O.2       0 UNK        -0.5240 
      4 N         -80.7948   25.8815  -70.9837 N.am      1 UNK        -0.4739 
      5 CA        -81.4584   26.3064  -72.2202 C.3       1 UNK         0.0864 
      6 C6        -80.8684   27.6340  -72.7510 C.3       11 UNK        -0.0881 
      7 S7        -81.2831   29.0591  -71.6857 S.3       11 UNK        -0.2682 
      8 C8        -79.7604   29.3143  -70.7089 C.3       11 UNK         0.0289 
      9 C9        -78.4968   29.4089  -71.5571 C.ar      11 UNK        -0.0687 
     10 C10       -78.4552   30.2236  -72.6962 C.ar      11 UNK        -0.0823 
     11 C11       -77.3171   30.2523  -73.5065 C.ar      11 UNK        -0.0830 
     12 C12       -76.1998   29.5020  -73.1352 C.ar      11 UNK        -0.1021 
     13 C13       -76.2192   28.6949  -71.9975 C.ar      11 UNK        -0.0753 
     14 C14       -77.3721   28.6510  -71.2107 C.ar      11 UNK        -0.0933 
     15 C15       -75.0112   27.8318  -71.6630 C.3       11 UNK         0.0166 
     16 S16       -73.9118   28.5563  -70.3997 S.3       11 UNK        -0.2615 
     17 C17       -73.5209   30.2359  -71.0205 C.3       11 UNK        -0.0865 
     18 CA        -72.3631   30.3271  -72.0528 C.3       10 UNK         0.0862 
     19 C         -70.9773   29.9178  -71.4718 C.2       10 UNK         0.5551 
     20 N         -70.2109   29.0442  -72.1162 N.am      10 UNK        -0.7319 
     21 O         -70.5782   30.4216  -70.4247 O.2       10 UNK        -0.5018 
     22 N         -72.7143   29.6463  -73.3043 N.am      10 UNK        -0.4509 
     23 C         -72.4416   30.0827  -74.5390 C.2       10 UNK         0.4899 
     24 O         -71.8945   31.1592  -74.7816 O.2       10 UNK        -0.4839 
     25 CA        -72.8717   29.1555  -75.6959 C.3       9 UNK         0.0222 
     26 CB        -72.0795   29.4152  -76.9936 C.3       9 UNK        -0.1966 
     27 N         -72.8425   27.7244  -75.3616 N.am      9 UNK        -0.4218 
     28 C         -71.7905   27.0119  -74.9266 C.2       9 UNK         0.5020 
     29 O         -70.6943   27.4989  -74.6475 O.2       9 UNK        -0.5274 
     30 CA        -71.9975   25.5000  -74.7711 C.3       8 UNK         0.0270 
     31 CB        -72.5920   25.1602  -73.3935 C.3       8 UNK        -0.1976 
     32 N         -72.8582   24.9682  -75.8315 N.am      8 UNK        -0.4313 
     33 C         -72.4003   24.4218  -76.9651 C.2       8 UNK         0.5041 
     34 O         -71.2046   24.2890  -77.2305 O.2       8 UNK        -0.5577 
     35 CA        -73.4474   23.9115  -77.9660 C.3       7 UNK         0.0284 
     36 CB        -74.0726   22.5946  -77.4750 C.3       7 UNK        -0.1958 
     37 N         -74.5087   24.8765  -78.2587 N.am      7 UNK        -0.4454 
     38 C         -74.3558   25.9741  -79.0139 C.2       7 UNK         0.5089 
     39 O         -73.2720   26.3613  -79.4505 O.2       7 UNK        -0.5125 
     40 CA        -75.6309   26.7559  -79.3706 C.3       6 UNK         0.0408 
     41 CB        -76.4435   26.0051  -80.4388 C.3       6 UNK        -0.1791 
     42 N         -76.4648   26.9704  -78.1891 N.am      6 UNK        -0.4762 
     43 C         -76.5369   28.1214  -77.5048 C.2       6 UNK         0.5007 
     44 O         -75.9905   29.1637  -77.8663 O.2       6 UNK        -0.5032 
     45 CA        -77.2946   28.1038  -76.1596 C.3       5 UNK         0.0783 
     46 C46       -78.6464   28.8648  -76.1955 C.3       11 UNK        -0.0857 
     47 S47       -78.6180   30.6846  -75.9741 S.3       11 UNK        -0.2512 
     48 C48       -77.2771   31.0762  -74.7906 C.3       11 UNK         0.0225 
     49 N         -77.4713   26.7567  -75.6116 N.am      5 UNK        -0.4615 
     50 C         -76.4824   26.0026  -75.1171 C.2       4 UNK         0.5053 
     51 O         -75.3055   26.3609  -75.0778 O.2       4 UNK        -0.5105 
     52 CA        -76.8529   24.5883  -74.6437 C.3       4 UNK         0.0263 
     53 CB        -77.1600   24.6037  -73.1388 C.3       4 UNK        -0.1981 
     54 N         -77.9751   23.9933  -75.3825 N.am      4 UNK        -0.4224 
     55 C         -77.9817   23.7776  -76.7091 C.2       3 UNK         0.4895 
     56 O         -77.0468   24.0875  -77.4478 O.2       3 UNK        -0.5091 
     57 CA        -79.2295   23.1402  -77.3429 C.3       3 UNK         0.0250 
     58 CB        -78.9862   21.6451  -77.6019 C.3       3 UNK        -0.1996 
     59 N         -80.4626   23.3027  -76.5699 N.am      3 UNK        -0.4254 
     60 C         -81.0524   24.4717  -76.2849 C.2       2 UNK         0.5004 
     61 O         -80.5955   25.5675  -76.6197 O.2       2 UNK        -0.5226 
     62 CA        -82.3602   24.4223  -75.4676 C.3       2 UNK         0.0269 
     63 CB        -82.8191   22.9980  -75.0744 C.3       2 UNK        -0.1926 
     64 N         -82.2831   25.2787  -74.2786 N.am      2 UNK        -0.4687 
     65 C         -81.3635   25.2133  -73.3039 C.2       1 UNK         0.5165 
     66 O         -80.4562   24.3762  -73.2684 O.2       1 UNK        -0.5079 
     67 H67       -80.9393   24.8535  -67.9966 H         1 UNK         0.0900 
     68 H68       -79.4735   25.1468  -68.9343 H         1 UNK         0.0900 
     69 H69       -80.2176   23.5468  -68.9403 H         1 UNK         0.0900 
     70 H70       -79.8614   26.2377  -70.8461 H         1 UNK         0.2959 
     71 H71       -82.5182   26.4587  -72.0016 H         1 UNK         0.1079 
     72 H72       -79.7903   27.5462  -72.8922 H         1 UNK         0.0837 
     73 H73       -81.2713   27.8685  -73.7384 H         1 UNK         0.0837 
     74 H74       -79.8644   30.2335  -70.1314 H         1 UNK         0.0685 
     75 H75       -79.6789   28.5037  -69.9834 H         1 UNK         0.0685 
     76 H76       -79.3233   30.8051  -72.9751 H         1 UNK         0.1434 
     77 H77       -75.3176   29.5242  -73.7553 H         1 UNK         0.1329 
     78 H78       -77.3936   28.0161  -70.3355 H         1 UNK         0.1335 
     79 H79       -75.3528   26.8612  -71.3013 H         1 UNK         0.0680 
     80 H80       -74.4393   27.6213  -72.5657 H         1 UNK         0.0680 
     81 H81       -73.2778   30.8506  -70.1519 H         1 UNK         0.1032 
     82 H82       -74.4204   30.6941  -71.4305 H         1 UNK         0.1032 
     83 H83       -72.2548   31.3898  -72.2775 H         1 UNK         0.0461 
     84 H84       -69.3145   28.8003  -71.7268 H         1 UNK         0.3453 
     85 H85       -70.5014   28.6356  -72.9978 H         1 UNK         0.3453 
     86 H86       -73.1125   28.7268  -73.1982 H         1 UNK         0.2984 
     87 H87       -73.9162   29.3952  -75.8984 H         1 UNK         0.0554 
     88 H88       -72.4257   28.7715  -77.8028 H         1 UNK         0.0847 
     89 H89       -71.0122   29.2383  -76.8566 H         1 UNK         0.0847 
     90 H90       -72.2000   30.4458  -77.3294 H         1 UNK         0.0847 
     91 H91       -73.7275   27.2313  -75.4616 H         1 UNK         0.3141 
     92 H92       -71.0121   25.0316  -74.8239 H         1 UNK         0.0743 
     93 H93       -73.6090   25.5313  -73.2781 H         1 UNK         0.0784 
     94 H94       -72.6156   24.0822  -73.2337 H         1 UNK         0.0784 
     95 H95       -71.9927   25.5922  -72.5906 H         1 UNK         0.0784 
     96 H96       -73.8560   25.1014  -75.7152 H         1 UNK         0.3213 
     97 H97       -72.9260   23.7000  -78.9024 H         1 UNK         0.0855 
     98 H98       -74.6407   22.7312  -76.5545 H         1 UNK         0.0814 
     99 H99       -73.3035   21.8470  -77.2764 H         1 UNK         0.0814 
    100 H100      -74.7470   22.1745  -78.2215 H         1 UNK         0.0814 
    101 H101      -75.4485   24.6133  -77.9640 H         1 UNK         0.3105 
    102 H102      -75.3255   27.7124  -79.8000 H         1 UNK         0.0547 
    103 H103      -75.8424   25.8259  -81.3311 H         1 UNK         0.0837 
    104 H104      -76.7937   25.0360  -80.0814 H         1 UNK         0.0837 
    105 H105      -77.3158   26.5813  -80.7472 H         1 UNK         0.0837 
    106 H106      -76.9147   26.1486  -77.8026 H         1 UNK         0.3020 
    107 H107      -76.6173   28.6072  -75.4827 H         1 UNK         0.1245 
    108 H108      -79.2870   28.4991  -75.3911 H         1 UNK         0.0781 
    109 H109      -79.1920   28.6349  -77.1127 H         1 UNK         0.0781 
    110 H110      -77.3492   32.1319  -74.5260 H         1 UNK         0.0836 
    111 H111      -76.3192   30.9640  -75.3014 H         1 UNK         0.0836 
    112 H112      -78.4046   26.3688  -75.6525 H         1 UNK         0.3022 
    113 H113      -75.9830   23.9493  -74.8057 H         1 UNK         0.0747 
    114 H114      -77.4369   23.6137  -72.7761 H         1 UNK         0.0793 
    115 H115      -76.2874   24.9245  -72.5689 H         1 UNK         0.0793 
    116 H116      -77.9734   25.2893  -72.8984 H         1 UNK         0.0793 
    117 H117      -78.7987   23.7533  -74.8441 H         1 UNK         0.3047 
    118 H118      -79.3809   23.6324  -78.3061 H         1 UNK         0.0822 
    119 H119      -79.8153   21.1958  -78.1490 H         1 UNK         0.0807 
    120 H120      -78.8551   21.0899  -76.6721 H         1 UNK         0.0807 
    121 H121      -78.0868   21.4936  -78.2010 H         1 UNK         0.0807 
    122 H122      -80.8984   22.4567  -76.2321 H         1 UNK         0.2946 
    123 H123      -83.1287   24.8506  -76.1135 H         1 UNK         0.1144 
    124 H124      -82.9852   22.3755  -75.9547 H         1 UNK         0.0793 
    125 H125      -83.7642   23.0312  -74.5321 H         1 UNK         0.0793 
    126 H126      -82.0953   22.4911  -74.4348 H         1 UNK         0.0793 
    127 H127      -82.9633   26.0256  -74.2434 H         1 UNK         0.2896 
@<TRIPOS>BOND
     1    1    2 1    
     2    1   67 1    
     3    1   68 1    
     4    1   69 1    
     5    2    3 2    
     6    2    4 am   BACKBONE|DICT|INTERRES
     7    4    5 1    
     8    4   70 1    
     9    5    6 1    
    10    5   65 1    
    11    5   71 1    
    12    6    7 1    
    13    6   72 1    
    14    6   73 1    
    15    7    8 1    
    16    8    9 1    
    17    8   74 1    
    18    8   75 1    
    19    9   10 ar   
    20    9   14 ar   
    21   10   11 ar   
    22   10   76 1    
    23   11   12 ar   
    24   11   48 1    
    25   12   13 ar   
    26   12   77 1    
    27   13   14 ar   
    28   13   15 1    
    29   14   78 1    
    30   15   16 1    
    31   15   79 1    
    32   15   80 1    
    33   16   17 1    
    34   17   18 1    
    35   17   81 1    
    36   17   82 1    
    37   18   19 1    
    38   18   22 1    
    39   18   83 1    
    40   19   20 am   BACKBONE|DICT|INTERRES
    41   19   21 2    
    42   20   84 1    
    43   20   85 1    
    44   22   23 am   BACKBONE|DICT|INTERRES
    45   22   86 1    
    46   23   24 2    
    47   23   25 1    
    48   25   26 1    
    49   25   27 1    
    50   25   87 1    
    51   26   88 1    
    52   26   89 1    
    53   26   90 1    
    54   27   28 am   BACKBONE|DICT|INTERRES
    55   27   91 1    
    56   28   29 2    
    57   28   30 1    
    58   30   31 1    
    59   30   32 1    
    60   30   92 1    
    61   31   93 1    
    62   31   94 1    
    63   31   95 1    
    64   32   33 am   BACKBONE|DICT|INTERRES
    65   32   96 1    
    66   33   34 2    
    67   33   35 1    
    68   35   36 1    
    69   35   37 1    
    70   35   97 1    
    71   36   98 1    
    72   36   99 1    
    73   36  100 1    
    74   37   38 am   BACKBONE|DICT|INTERRES
    75   37  101 1    
    76   38   39 2    
    77   38   40 1    
    78   40   41 1    
    79   40   42 1    
    80   40  102 1    
    81   41  103 1    
    82   41  104 1    
    83   41  105 1    
    84   42   43 am   BACKBONE|DICT|INTERRES
    85   42  106 1    
    86   43   44 2    
    87   43   45 1    
    88   45   46 1    
    89   45   49 1    
    90   45  107 1    
    91   46   47 1    
    92   46  108 1    
    93   46  109 1    
    94   47   48 1    
    95   48  110 1    
    96   48  111 1    
    97   49   50 am   BACKBONE|DICT|INTERRES
    98   49  112 1    
    99   50   51 2    
   100   50   52 1    
   101   52   53 1    
   102   52   54 1    
   103   52  113 1    
   104   53  114 1    
   105   53  115 1    
   106   53  116 1    
   107   54   55 am   BACKBONE|DICT|INTERRES
   108   54  117 1    
   109   55   56 2    
   110   55   57 1    
   111   57   58 1    
   112   57   59 1    
   113   57  118 1    
   114   58  119 1    
   115   58  120 1    
   116   58  121 1    
   117   59   60 am   BACKBONE|DICT|INTERRES
   118   59  122 1    
   119   60   61 2    
   120   60   62 1    
   121   62   63 1    
   122   62   64 1    
   123   62  123 1    
   124   63  124 1    
   125   63  125 1    
   126   63  126 1    
   127   64   65 am   BACKBONE|DICT|INTERRES
   128   64  127 1    
   129   65   66 2    
@<TRIPOS>SUBSTRUCTURE
     1 UNK         1 GROUP             0       ****    0 ROOT    
