@<TRIPOS>MOLECULE
3R135
127   129    1
SMALL
USER_CHARGES


@<TRIPOS>ATOM
      1 CA        -79.7653   24.5508  -70.4377 C.3       0 UNK        -0.1998 
      2 C         -80.6617   25.5943  -71.0879 C.2       0 UNK         0.4909 
      3 O         -81.7925   25.7918  -70.6431 O.2       0 UNK        -0.5240 
      4 N         -80.1720   26.2558  -72.1406 N.am      1 UNK        -0.4739 
      5 CA        -80.9126   27.2217  -72.9498 C.3       1 UNK         0.0864 
      6 C6        -81.0208   28.6232  -72.2853 C.3       11 UNK        -0.0881 
      7 S7        -79.4429   29.5326  -72.1567 S.3       11 UNK        -0.2682 
      8 C8        -78.9203   29.1785  -70.4518 C.3       11 UNK         0.0289 
      9 C9        -77.4435   28.8250  -70.4260 C.ar      11 UNK        -0.0687 
     10 C10       -77.0424   27.4879  -70.3740 C.ar      11 UNK        -0.0823 
     11 C11       -75.6864   27.1519  -70.4017 C.ar      11 UNK        -0.0830 
     12 C12       -74.7277   28.1664  -70.4752 C.ar      11 UNK        -0.1021 
     13 C13       -75.1180   29.5078  -70.5330 C.ar      11 UNK        -0.0753 
     14 C14       -76.4771   29.8324  -70.4920 C.ar      11 UNK        -0.0933 
     15 C15       -74.0704   30.6019  -70.6640 C.3       11 UNK         0.0166 
     16 S16       -73.4833   30.7636  -72.3806 S.3       11 UNK        -0.2615 
     17 C17       -74.9403   31.4725  -73.2268 C.3       11 UNK        -0.0865 
     18 CA        -75.7747   30.4259  -74.0267 C.3       10 UNK         0.0862 
     19 C         -77.0736   31.0364  -74.6392 C.2       10 UNK         0.5551 
     20 N         -77.6172   30.4709  -75.7110 N.am      10 UNK        -0.7319 
     21 O         -77.6018   32.0273  -74.1401 O.2       10 UNK        -0.5018 
     22 N         -74.9676   29.6444  -74.9820 N.am      10 UNK        -0.4509 
     23 C         -74.3285   30.1259  -76.0586 C.2       10 UNK         0.4899 
     24 O         -74.3409   31.3092  -76.4018 O.2       10 UNK        -0.4839 
     25 CA        -73.5537   29.0890  -76.8913 C.3       9 UNK         0.0222 
     26 CB        -72.6405   29.7102  -77.9695 C.3       9 UNK        -0.1966 
     27 N         -72.8279   28.1471  -76.0353 N.am      9 UNK        -0.4218 
     28 C         -71.7771   28.3913  -75.2362 C.2       9 UNK         0.5020 
     29 O         -71.1763   29.4646  -75.1790 O.2       9 UNK        -0.5274 
     30 CA        -71.3201   27.2300  -74.3371 C.3       8 UNK         0.0270 
     31 CB        -72.0099   27.3198  -72.9671 C.3       8 UNK        -0.1976 
     32 N         -71.6096   25.9278  -74.9441 N.am      8 UNK        -0.4313 
     33 C         -70.8030   25.3128  -75.8210 C.2       8 UNK         0.5041 
     34 O         -69.6798   25.7178  -76.1235 O.2       8 UNK        -0.5577 
     35 CA        -71.3485   24.0391  -76.4920 C.3       7 UNK         0.0284 
     36 CB        -71.1236   22.8127  -75.5925 C.3       7 UNK        -0.1958 
     37 N         -72.7693   24.1411  -76.8364 N.am      7 UNK        -0.4454 
     38 C         -73.2798   24.9873  -77.7437 C.2       7 UNK         0.5089 
     39 O         -72.5962   25.7223  -78.4553 O.2       7 UNK        -0.5125 
     40 CA        -74.8152   25.0451  -77.8670 C.3       6 UNK         0.0408 
     41 CB        -75.2760   24.2102  -79.0716 C.3       6 UNK        -0.1791 
     42 N         -75.5390   24.6138  -76.6622 N.am      6 UNK        -0.4762 
     43 C         -75.4539   25.2028  -75.4582 C.2       6 UNK         0.5007 
     44 O         -74.7663   26.2058  -75.2513 O.2       6 UNK        -0.5032 
     45 CA        -76.2433   24.5416  -74.3105 C.3       5 UNK         0.0783 
     46 C46       -76.2566   25.3684  -73.0004 C.3       11 UNK        -0.0857 
     47 S47       -74.7411   25.1080  -72.0182 S.3       11 UNK        -0.2512 
     48 C48       -75.2600   25.6918  -70.3738 C.3       11 UNK         0.0225 
     49 N         -77.5975   24.2180  -74.7630 N.am      5 UNK        -0.4615 
     50 C         -78.1176   22.9845  -74.8064 C.2       4 UNK         0.5053 
     51 O         -77.5248   21.9754  -74.4249 O.2       4 UNK        -0.5105 
     52 CA        -79.5285   22.8397  -75.4020 C.3       4 UNK         0.0263 
     53 CB        -80.5984   23.0631  -74.3214 C.3       4 UNK        -0.1981 
     54 N         -79.7806   23.7400  -76.5296 N.am      4 UNK        -0.4224 
     55 C         -79.1297   23.7351  -77.7005 C.2       3 UNK         0.4895 
     56 O         -78.2403   22.9308  -77.9783 O.2       3 UNK        -0.5091 
     57 CA        -79.5016   24.8226  -78.7299 C.3       3 UNK         0.0250 
     58 CB        -80.6706   24.3665  -79.6252 C.3       3 UNK        -0.1996 
     59 N         -79.7390   26.1544  -78.1468 N.am      3 UNK        -0.4254 
     60 C         -80.7315   26.5378  -77.3321 C.2       2 UNK         0.5004 
     61 O         -81.6782   25.8162  -77.0080 O.2       2 UNK        -0.5226 
     62 CA        -80.6181   27.9444  -76.7218 C.3       2 UNK         0.0269 
     63 CB        -81.5307   28.9346  -77.4621 C.3       2 UNK        -0.1926 
     64 N         -80.9715   27.9251  -75.2994 N.am      2 UNK        -0.4687 
     65 C         -80.2996   27.2394  -74.3634 C.2       1 UNK         0.5165 
     66 O         -79.2518   26.6209  -74.5891 O.2       1 UNK        -0.5079 
     67 H67       -78.8796   24.3416  -71.0354 H         1 UNK         0.0900 
     68 H68       -80.3106   23.6156  -70.3131 H         1 UNK         0.0900 
     69 H69       -79.4448   24.8907  -69.4534 H         1 UNK         0.0900 
     70 H70       -79.2569   26.0463  -72.5184 H         1 UNK         0.2959 
     71 H71       -81.9254   26.8312  -73.0747 H         1 UNK         0.1079 
     72 H72       -81.7097   29.2481  -72.8556 H         1 UNK         0.0837 
     73 H73       -81.4750   28.5369  -71.2973 H         1 UNK         0.0837 
     74 H74       -79.1104   30.0519  -69.8264 H         1 UNK         0.0685 
     75 H75       -79.5092   28.3626  -70.0308 H         1 UNK         0.0685 
     76 H76       -77.7878   26.7079  -70.3298 H         1 UNK         0.1434 
     77 H77       -73.6777   27.9105  -70.5140 H         1 UNK         0.1329 
     78 H78       -76.7878   30.8668  -70.5468 H         1 UNK         0.1335 
     79 H79       -74.4598   31.5597  -70.3154 H         1 UNK         0.0680 
     80 H80       -73.2194   30.3675  -70.0229 H         1 UNK         0.0680 
     81 H81       -74.5916   32.2626  -73.8933 H         1 UNK         0.1032 
     82 H82       -75.5652   31.9720  -72.4851 H         1 UNK         0.1032 
     83 H83       -76.1391   29.6921  -73.3078 H         1 UNK         0.0461 
     84 H84       -78.4540   30.8697  -76.1042 H         1 UNK         0.3453 
     85 H85       -77.1896   29.6617  -76.1292 H         1 UNK         0.3453 
     86 H86       -74.9044   28.6535  -74.7913 H         1 UNK         0.2984 
     87 H87       -74.3076   28.4959  -77.4106 H         1 UNK         0.0554 
     88 H88       -72.1101   28.9397  -78.5293 H         1 UNK         0.0847 
     89 H89       -71.8999   30.3847  -77.5393 H         1 UNK         0.0847 
     90 H90       -73.2243   30.2884  -78.6864 H         1 UNK         0.0847 
     91 H91       -73.2863   27.2484  -75.9225 H         1 UNK         0.3141 
     92 H92       -70.2432   27.3243  -74.1808 H         1 UNK         0.0743 
     93 H93       -73.0962   27.3413  -73.0638 H         1 UNK         0.0784 
     94 H94       -71.7433   26.4796  -72.3260 H         1 UNK         0.0784 
     95 H95       -71.7157   28.2316  -72.4462 H         1 UNK         0.0784 
     96 H96       -72.5214   25.5328  -74.7580 H         1 UNK         0.3213 
     97 H97       -70.7902   23.8898  -77.4190 H         1 UNK         0.0855 
     98 H98       -71.6772   22.8877  -74.6556 H         1 UNK         0.0814 
     99 H99       -70.0679   22.7057  -75.3385 H         1 UNK         0.0814 
    100 H100      -71.4288   21.8927  -76.0914 H         1 UNK         0.0814 
    101 H101      -73.4101   23.5527  -76.3249 H         1 UNK         0.3105 
    102 H102      -75.0825   26.0869  -78.0547 H         1 UNK         0.0547 
    103 H103      -74.7309   24.4887  -79.9748 H         1 UNK         0.0837 
    104 H104      -75.1167   23.1434  -78.9103 H         1 UNK         0.0837 
    105 H105      -76.3328   24.3640  -79.2805 H         1 UNK         0.0837 
    106 H106      -76.1451   23.8097  -76.7633 H         1 UNK         0.3020 
    107 H107      -75.7094   23.6110  -74.1048 H         1 UNK         0.1245 
    108 H108      -77.0960   25.0564  -72.3801 H         1 UNK         0.0781 
    109 H109      -76.4044   26.4338  -73.1903 H         1 UNK         0.0781 
    110 H110      -74.4301   25.5687  -69.6766 H         1 UNK         0.0836 
    111 H111      -76.0663   25.0572  -70.0026 H         1 UNK         0.0836 
    112 H112      -78.1690   25.0078  -75.0503 H         1 UNK         0.3022 
    113 H113      -79.6241   21.8165  -75.7711 H         1 UNK         0.0747 
    114 H114      -81.5968   22.8485  -74.7029 H         1 UNK         0.0793 
    115 H115      -80.4325   22.4103  -73.4631 H         1 UNK         0.0793 
    116 H116      -80.5946   24.0900  -73.9574 H         1 UNK         0.0793 
    117 H117      -80.5201   24.4290  -76.4198 H         1 UNK         0.3047 
    118 H118      -78.6332   24.9438  -79.3786 H         1 UNK         0.0822 
    119 H119      -80.9031   25.1127  -80.3849 H         1 UNK         0.0807 
    120 H120      -81.5788   24.1759  -79.0529 H         1 UNK         0.0807 
    121 H121      -80.4201   23.4413  -80.1459 H         1 UNK         0.0807 
    122 H122      -79.0060   26.8252  -78.3325 H         1 UNK         0.2946 
    123 H123      -79.5846   28.2880  -76.8036 H         1 UNK         0.1144 
    124 H124      -82.5796   28.6414  -77.3988 H         1 UNK         0.0793 
    125 H125      -81.2711   28.9887  -78.5203 H         1 UNK         0.0793 
    126 H126      -81.4377   29.9417  -77.0551 H         1 UNK         0.0793 
    127 H127      -81.8324   28.3867  -75.0452 H         1 UNK         0.2896 
@<TRIPOS>BOND
     1    1    2 1    
     2    1   67 1    
     3    1   68 1    
     4    1   69 1    
     5    2    3 2    
     6    2    4 am   BACKBONE|DICT|INTERRES
     7    4    5 1    
     8    4   70 1    
     9    5    6 1    
    10    5   65 1    
    11    5   71 1    
    12    6    7 1    
    13    6   72 1    
    14    6   73 1    
    15    7    8 1    
    16    8    9 1    
    17    8   74 1    
    18    8   75 1    
    19    9   10 ar   
    20    9   14 ar   
    21   10   11 ar   
    22   10   76 1    
    23   11   12 ar   
    24   11   48 1    
    25   12   13 ar   
    26   12   77 1    
    27   13   14 ar   
    28   13   15 1    
    29   14   78 1    
    30   15   16 1    
    31   15   79 1    
    32   15   80 1    
    33   16   17 1    
    34   17   18 1    
    35   17   81 1    
    36   17   82 1    
    37   18   19 1    
    38   18   22 1    
    39   18   83 1    
    40   19   20 am   BACKBONE|DICT|INTERRES
    41   19   21 2    
    42   20   84 1    
    43   20   85 1    
    44   22   23 am   BACKBONE|DICT|INTERRES
    45   22   86 1    
    46   23   24 2    
    47   23   25 1    
    48   25   26 1    
    49   25   27 1    
    50   25   87 1    
    51   26   88 1    
    52   26   89 1    
    53   26   90 1    
    54   27   28 am   BACKBONE|DICT|INTERRES
    55   27   91 1    
    56   28   29 2    
    57   28   30 1    
    58   30   31 1    
    59   30   32 1    
    60   30   92 1    
    61   31   93 1    
    62   31   94 1    
    63   31   95 1    
    64   32   33 am   BACKBONE|DICT|INTERRES
    65   32   96 1    
    66   33   34 2    
    67   33   35 1    
    68   35   36 1    
    69   35   37 1    
    70   35   97 1    
    71   36   98 1    
    72   36   99 1    
    73   36  100 1    
    74   37   38 am   BACKBONE|DICT|INTERRES
    75   37  101 1    
    76   38   39 2    
    77   38   40 1    
    78   40   41 1    
    79   40   42 1    
    80   40  102 1    
    81   41  103 1    
    82   41  104 1    
    83   41  105 1    
    84   42   43 am   BACKBONE|DICT|INTERRES
    85   42  106 1    
    86   43   44 2    
    87   43   45 1    
    88   45   46 1    
    89   45   49 1    
    90   45  107 1    
    91   46   47 1    
    92   46  108 1    
    93   46  109 1    
    94   47   48 1    
    95   48  110 1    
    96   48  111 1    
    97   49   50 am   BACKBONE|DICT|INTERRES
    98   49  112 1    
    99   50   51 2    
   100   50   52 1    
   101   52   53 1    
   102   52   54 1    
   103   52  113 1    
   104   53  114 1    
   105   53  115 1    
   106   53  116 1    
   107   54   55 am   BACKBONE|DICT|INTERRES
   108   54  117 1    
   109   55   56 2    
   110   55   57 1    
   111   57   58 1    
   112   57   59 1    
   113   57  118 1    
   114   58  119 1    
   115   58  120 1    
   116   58  121 1    
   117   59   60 am   BACKBONE|DICT|INTERRES
   118   59  122 1    
   119   60   61 2    
   120   60   62 1    
   121   62   63 1    
   122   62   64 1    
   123   62  123 1    
   124   63  124 1    
   125   63  125 1    
   126   63  126 1    
   127   64   65 am   BACKBONE|DICT|INTERRES
   128   64  127 1    
   129   65   66 2    
@<TRIPOS>SUBSTRUCTURE
     1 UNK         1 GROUP             0       ****    0 ROOT    
