@<TRIPOS>MOLECULE
3R135
127   129    1
SMALL
USER_CHARGES


@<TRIPOS>ATOM
      1 CA        -76.9063   25.6944  -71.7385 C.3       0 UNK        -0.1998 
      2 C         -78.3244   25.4829  -71.2299 C.2       0 UNK         0.4909 
      3 O         -78.6012   24.4658  -70.5953 O.2       0 UNK        -0.5240 
      4 N         -79.2279   26.4315  -71.5069 N.am      1 UNK        -0.4739 
      5 CA        -80.6187   26.4498  -71.0293 C.3       1 UNK         0.0864 
      6 C6        -81.1643   27.8980  -70.9024 C.3       11 UNK        -0.0881 
      7 S7        -80.1527   28.9434  -69.7970 S.3       11 UNK        -0.2682 
      8 C8        -79.7576   30.3669  -70.8629 C.3       11 UNK         0.0289 
      9 C9        -78.7684   30.0059  -71.9611 C.ar      11 UNK        -0.0687 
     10 C10       -79.2066   29.8309  -73.2790 C.ar      11 UNK        -0.0823 
     11 C11       -78.2972   29.4951  -74.2849 C.ar      11 UNK        -0.0830 
     12 C12       -76.9452   29.3610  -73.9687 C.ar      11 UNK        -0.1021 
     13 C13       -76.4925   29.5257  -72.6601 C.ar      11 UNK        -0.0753 
     14 C14       -77.4106   29.8511  -71.6574 C.ar      11 UNK        -0.0933 
     15 C15       -75.0263   29.2836  -72.3288 C.3       11 UNK         0.0166 
     16 S16       -74.1289   30.8092  -71.9024 S.3       11 UNK        -0.2615 
     17 C17       -74.0459   31.7743  -73.4571 C.3       11 UNK        -0.0865 
     18 CA        -73.7114   31.0078  -74.7766 C.3       10 UNK         0.0862 
     19 C         -73.5993   31.9607  -76.0041 C.2       10 UNK         0.5551 
     20 N         -74.6028   32.7968  -76.2361 N.am      10 UNK        -0.7319 
     21 O         -72.6361   31.9399  -76.7682 O.2       10 UNK        -0.5018 
     22 N         -72.5876   30.0640  -74.6719 N.am      10 UNK        -0.4509 
     23 C         -71.3324   30.3326  -74.2929 C.2       10 UNK         0.4899 
     24 O         -70.9486   31.4349  -73.8977 O.2       10 UNK        -0.4839 
     25 CA        -70.3275   29.1667  -74.4041 C.3       9 UNK         0.0222 
     26 CB        -69.1302   29.3096  -73.4398 C.3       9 UNK        -0.1966 
     27 N         -70.9488   27.8377  -74.2958 N.am      9 UNK        -0.4218 
     28 C         -71.5493   27.2901  -73.2266 C.2       9 UNK         0.5020 
     29 O         -71.6326   27.8492  -72.1326 O.2       9 UNK        -0.5274 
     30 CA        -72.1691   25.8853  -73.4045 C.3       8 UNK         0.0270 
     31 CB        -73.3644   25.6538  -72.4614 C.3       8 UNK        -0.1976 
     32 N         -72.5964   25.6195  -74.7827 N.am      8 UNK        -0.4313 
     33 C         -71.8067   25.1440  -75.7578 C.2       8 UNK         0.5041 
     34 O         -70.6261   24.8429  -75.5823 O.2       8 UNK        -0.5577 
     35 CA        -72.3999   25.0221  -77.1758 C.3       7 UNK         0.0284 
     36 CB        -72.7847   23.5636  -77.4698 C.3       7 UNK        -0.1958 
     37 N         -73.5598   25.8848  -77.4171 N.am      7 UNK        -0.4454 
     38 C         -73.5501   27.2267  -77.3694 C.2       7 UNK         0.5089 
     39 O         -72.5367   27.8959  -77.1669 O.2       7 UNK        -0.5125 
     40 CA        -74.9059   27.9478  -77.5017 C.3       6 UNK         0.0408 
     41 CB        -75.1085   28.4519  -78.9379 C.3       6 UNK        -0.1791 
     42 N         -76.0644   27.1400  -77.1035 N.am      6 UNK        -0.4762 
     43 C         -76.2335   26.5491  -75.9107 C.2       6 UNK         0.5007 
     44 O         -75.4185   26.6293  -74.9903 O.2       6 UNK        -0.5032 
     45 CA        -77.4929   25.6850  -75.7243 C.3       5 UNK         0.0783 
     46 C46       -78.6059   26.4405  -74.9581 C.3       11 UNK        -0.0857 
     47 S47       -79.6006   27.6327  -75.9290 S.3       11 UNK        -0.2512 
     48 C48       -78.7600   29.2416  -75.7127 C.3       11 UNK         0.0225 
     49 N         -77.9898   25.0500  -76.9476 N.am      5 UNK        -0.4615 
     50 C         -77.3031   24.2209  -77.7432 C.2       4 UNK         0.5053 
     51 O         -76.0937   24.0108  -77.6337 O.2       4 UNK        -0.5105 
     52 CA        -78.1317   23.4699  -78.8025 C.3       4 UNK         0.0263 
     53 CB        -77.2555   22.6425  -79.7615 C.3       4 UNK        -0.1981 
     54 N         -79.0986   22.5821  -78.1493 N.am      4 UNK        -0.4224 
     55 C         -80.2529   22.9746  -77.5925 C.2       3 UNK         0.4895 
     56 O         -80.6877   24.1255  -77.6839 O.2       3 UNK        -0.5091 
     57 CA        -81.0532   21.9304  -76.7874 C.3       3 UNK         0.0250 
     58 CB        -80.2660   20.6398  -76.4595 C.3       3 UNK        -0.1996 
     59 N         -81.6272   22.5121  -75.5658 N.am      3 UNK        -0.4254 
     60 C         -80.9633   23.0647  -74.5383 C.2       2 UNK         0.5004 
     61 O         -79.7337   23.1186  -74.4437 O.2       2 UNK        -0.5226 
     62 CA        -81.8341   23.6267  -73.4078 C.3       2 UNK         0.0269 
     63 CB        -82.3707   22.4914  -72.5142 C.3       2 UNK        -0.1926 
     64 N         -81.0596   24.5685  -72.5988 N.am      2 UNK        -0.4687 
     65 C         -81.5791   25.5486  -71.8485 C.2       1 UNK         0.5165 
     66 O         -82.7931   25.7535  -71.7839 O.2       1 UNK        -0.5079 
     67 H67       -76.6617   24.9513  -72.4969 H         1 UNK         0.0900 
     68 H68       -76.7697   26.6834  -72.1736 H         1 UNK         0.0900 
     69 H69       -76.1957   25.5900  -70.9191 H         1 UNK         0.0900 
     70 H70       -78.9414   27.2605  -72.0088 H         1 UNK         0.2959 
     71 H71       -80.6247   26.0235  -70.0235 H         1 UNK         0.1079 
     72 H72       -82.1744   27.8940  -70.4883 H         1 UNK         0.0837 
     73 H73       -81.2484   28.3596  -71.8869 H         1 UNK         0.0837 
     74 H74       -79.3326   31.1593  -70.2450 H         1 UNK         0.0685 
     75 H75       -80.6786   30.7727  -71.2846 H         1 UNK         0.0685 
     76 H76       -80.2549   29.9394  -73.5221 H         1 UNK         0.1434 
     77 H77       -76.2490   29.0852  -74.7435 H         1 UNK         0.1329 
     78 H78       -77.0699   29.9732  -70.6382 H         1 UNK         0.1335 
     79 H79       -74.9680   28.6056  -71.4763 H         1 UNK         0.0680 
     80 H80       -74.5182   28.7707  -73.1457 H         1 UNK         0.0680 
     81 H81       -73.3155   32.5696  -73.2990 H         1 UNK         0.1032 
     82 H82       -75.0073   32.2799  -73.5569 H         1 UNK         0.1032 
     83 H83       -74.5604   30.3759  -75.0146 H         1 UNK         0.0461 
     84 H84       -74.5467   33.4126  -77.0323 H         1 UNK         0.3453 
     85 H85       -75.4180   32.8220  -75.6447 H         1 UNK         0.3453 
     86 H86       -72.7601   29.1433  -75.0485 H         1 UNK         0.2984 
     87 H87       -69.9316   29.2198  -75.4193 H         1 UNK         0.0554 
     88 H88       -68.5722   30.2246  -73.6423 H         1 UNK         0.0847 
     89 H89       -68.4334   28.4780  -73.5439 H         1 UNK         0.0847 
     90 H90       -69.4510   29.3521  -72.3986 H         1 UNK         0.0847 
     91 H91       -70.9456   27.2917  -75.1475 H         1 UNK         0.3141 
     92 H92       -71.3940   25.1667  -73.1302 H         1 UNK         0.0743 
     93 H93       -73.7889   24.6586  -72.5938 H         1 UNK         0.0784 
     94 H94       -73.0655   25.7393  -71.4159 H         1 UNK         0.0784 
     95 H95       -74.1567   26.3813  -72.6341 H         1 UNK         0.0784 
     96 H96       -73.5530   25.8794  -75.0081 H         1 UNK         0.3213 
     97 H97       -71.6193   25.3192  -77.8793 H         1 UNK         0.0855 
     98 H98       -73.5640   23.2091  -76.7937 H         1 UNK         0.0814 
     99 H99       -71.9257   22.9013  -77.3533 H         1 UNK         0.0814 
    100 H100      -73.1489   23.4453  -78.4905 H         1 UNK         0.0814 
    101 H101      -74.4474   25.4143  -77.5609 H         1 UNK         0.3105 
    102 H102      -74.8743   28.8152  -76.8409 H         1 UNK         0.0547 
    103 H103      -75.1801   27.6279  -79.6489 H         1 UNK         0.0837 
    104 H104      -74.2742   29.0813  -79.2513 H         1 UNK         0.0837 
    105 H105      -76.0138   29.0529  -79.0251 H         1 UNK         0.0837 
    106 H106      -76.7826   26.9983  -77.7996 H         1 UNK         0.3020 
    107 H107      -77.1743   24.8604  -75.0821 H         1 UNK         0.1245 
    108 H108      -78.2046   26.9135  -74.0658 H         1 UNK         0.0781 
    109 H109      -79.3164   25.7085  -74.5775 H         1 UNK         0.0781 
    110 H110      -77.9162   29.2922  -76.4024 H         1 UNK         0.0836 
    111 H111      -79.4411   30.0369  -76.0185 H         1 UNK         0.0836 
    112 H112      -78.9889   25.1288  -77.1085 H         1 UNK         0.3022 
    113 H113      -78.6674   24.2147  -79.3951 H         1 UNK         0.0747 
    114 H114      -76.6932   21.8707  -79.2342 H         1 UNK         0.0793 
    115 H115      -77.8582   22.1544  -80.5276 H         1 UNK         0.0793 
    116 H116      -76.5329   23.2781  -80.2752 H         1 UNK         0.0793 
    117 H117      -78.8007   21.6287  -78.0010 H         1 UNK         0.3047 
    118 H118      -81.8980   21.6502  -77.4183 H         1 UNK         0.0822 
    119 H119      -80.8709   19.9547  -75.8654 H         1 UNK         0.0807 
    120 H120      -79.3558   20.8461  -75.8947 H         1 UNK         0.0807 
    121 H121      -79.9840   20.1025  -77.3657 H         1 UNK         0.0807 
    122 H122      -82.6372   22.5414  -75.5444 H         1 UNK         0.2946 
    123 H123      -82.6720   24.1587  -73.8650 H         1 UNK         0.1144 
    124 H124      -83.0321   22.8739  -71.7367 H         1 UNK         0.0793 
    125 H125      -81.5594   21.9498  -72.0261 H         1 UNK         0.0793 
    126 H126      -82.9444   21.7674  -73.0942 H         1 UNK         0.0793 
    127 H127      -80.0562   24.4383  -72.6313 H         1 UNK         0.2896 
@<TRIPOS>BOND
     1    1    2 1    
     2    1   67 1    
     3    1   68 1    
     4    1   69 1    
     5    2    3 2    
     6    2    4 am   BACKBONE|DICT|INTERRES
     7    4    5 1    
     8    4   70 1    
     9    5    6 1    
    10    5   65 1    
    11    5   71 1    
    12    6    7 1    
    13    6   72 1    
    14    6   73 1    
    15    7    8 1    
    16    8    9 1    
    17    8   74 1    
    18    8   75 1    
    19    9   10 ar   
    20    9   14 ar   
    21   10   11 ar   
    22   10   76 1    
    23   11   12 ar   
    24   11   48 1    
    25   12   13 ar   
    26   12   77 1    
    27   13   14 ar   
    28   13   15 1    
    29   14   78 1    
    30   15   16 1    
    31   15   79 1    
    32   15   80 1    
    33   16   17 1    
    34   17   18 1    
    35   17   81 1    
    36   17   82 1    
    37   18   19 1    
    38   18   22 1    
    39   18   83 1    
    40   19   20 am   BACKBONE|DICT|INTERRES
    41   19   21 2    
    42   20   84 1    
    43   20   85 1    
    44   22   23 am   BACKBONE|DICT|INTERRES
    45   22   86 1    
    46   23   24 2    
    47   23   25 1    
    48   25   26 1    
    49   25   27 1    
    50   25   87 1    
    51   26   88 1    
    52   26   89 1    
    53   26   90 1    
    54   27   28 am   BACKBONE|DICT|INTERRES
    55   27   91 1    
    56   28   29 2    
    57   28   30 1    
    58   30   31 1    
    59   30   32 1    
    60   30   92 1    
    61   31   93 1    
    62   31   94 1    
    63   31   95 1    
    64   32   33 am   BACKBONE|DICT|INTERRES
    65   32   96 1    
    66   33   34 2    
    67   33   35 1    
    68   35   36 1    
    69   35   37 1    
    70   35   97 1    
    71   36   98 1    
    72   36   99 1    
    73   36  100 1    
    74   37   38 am   BACKBONE|DICT|INTERRES
    75   37  101 1    
    76   38   39 2    
    77   38   40 1    
    78   40   41 1    
    79   40   42 1    
    80   40  102 1    
    81   41  103 1    
    82   41  104 1    
    83   41  105 1    
    84   42   43 am   BACKBONE|DICT|INTERRES
    85   42  106 1    
    86   43   44 2    
    87   43   45 1    
    88   45   46 1    
    89   45   49 1    
    90   45  107 1    
    91   46   47 1    
    92   46  108 1    
    93   46  109 1    
    94   47   48 1    
    95   48  110 1    
    96   48  111 1    
    97   49   50 am   BACKBONE|DICT|INTERRES
    98   49  112 1    
    99   50   51 2    
   100   50   52 1    
   101   52   53 1    
   102   52   54 1    
   103   52  113 1    
   104   53  114 1    
   105   53  115 1    
   106   53  116 1    
   107   54   55 am   BACKBONE|DICT|INTERRES
   108   54  117 1    
   109   55   56 2    
   110   55   57 1    
   111   57   58 1    
   112   57   59 1    
   113   57  118 1    
   114   58  119 1    
   115   58  120 1    
   116   58  121 1    
   117   59   60 am   BACKBONE|DICT|INTERRES
   118   59  122 1    
   119   60   61 2    
   120   60   62 1    
   121   62   63 1    
   122   62   64 1    
   123   62  123 1    
   124   63  124 1    
   125   63  125 1    
   126   63  126 1    
   127   64   65 am   BACKBONE|DICT|INTERRES
   128   64  127 1    
   129   65   66 2    
@<TRIPOS>SUBSTRUCTURE
     1 UNK         1 GROUP             0       ****    0 ROOT    
