@<TRIPOS>MOLECULE
3R135
127   129    1
SMALL
USER_CHARGES


@<TRIPOS>ATOM
      1 CA        -78.9209   28.7137  -77.5870 C.3       0 UNK        -0.1998 
      2 C         -78.9705   28.3833  -76.1042 C.2       0 UNK         0.4909 
      3 O         -78.1613   27.5940  -75.6135 O.2       0 UNK        -0.5240 
      4 N         -79.9394   28.9735  -75.3945 N.am      1 UNK        -0.4739 
      5 CA        -80.2325   28.7377  -73.9769 C.3       1 UNK         0.0864 
      6 C6        -80.8633   30.0131  -73.3491 C.3       11 UNK        -0.0881 
      7 S7        -80.8888   30.2307  -71.5262 S.3       11 UNK        -0.2682 
      8 C8        -80.2312   28.7101  -70.7499 C.3       11 UNK         0.0289 
      9 C9        -78.7357   28.4548  -70.9349 C.ar      11 UNK        -0.0687 
     10 C10       -78.2627   27.1472  -70.7931 C.ar      11 UNK        -0.0823 
     11 C11       -76.9082   26.8502  -70.9698 C.ar      11 UNK        -0.0830 
     12 C12       -76.0171   27.8783  -71.2890 C.ar      11 UNK        -0.1021 
     13 C13       -76.4683   29.1949  -71.4122 C.ar      11 UNK        -0.0753 
     14 C14       -77.8245   29.4785  -71.2277 C.ar      11 UNK        -0.0933 
     15 C15       -75.4911   30.3176  -71.7223 C.3       11 UNK         0.0166 
     16 S16       -75.5027   30.7431  -73.4902 S.3       11 UNK        -0.2615 
     17 C17       -74.2989   32.1190  -73.5108 C.3       11 UNK        -0.0865 
     18 CA        -73.0474   31.8360  -74.3933 C.3       10 UNK         0.0862 
     19 C         -72.1027   33.0711  -74.5087 C.2       10 UNK         0.5551 
     20 N         -70.7927   32.8913  -74.6269 N.am      10 UNK        -0.7319 
     21 O         -72.5628   34.2105  -74.5219 O.2       10 UNK        -0.5018 
     22 N         -72.3685   30.5692  -74.0647 N.am      10 UNK        -0.4509 
     23 C         -71.8006   30.2445  -72.8934 C.2       10 UNK         0.4899 
     24 O         -71.7408   31.0107  -71.9315 O.2       10 UNK        -0.4839 
     25 CA        -71.2136   28.8251  -72.7537 C.3       9 UNK         0.0222 
     26 CB        -71.6145   28.1803  -71.4143 C.3       9 UNK        -0.1966 
     27 N         -71.6404   27.9477  -73.8476 N.am      9 UNK        -0.4218 
     28 C         -70.8618   27.5226  -74.8508 C.2       9 UNK         0.5020 
     29 O         -69.6519   27.7413  -74.9257 O.2       9 UNK        -0.5274 
     30 CA        -71.5545   26.7394  -75.9830 C.3       8 UNK         0.0270 
     31 CB        -71.4389   25.2277  -75.7328 C.3       8 UNK        -0.1976 
     32 N         -72.9635   27.1028  -76.2061 N.am      8 UNK        -0.4313 
     33 C         -73.3802   28.3279  -76.5695 C.2       8 UNK         0.5041 
     34 O         -72.6094   29.2821  -76.6859 O.2       8 UNK        -0.5577 
     35 CA        -74.8885   28.5623  -76.8010 C.3       7 UNK         0.0284 
     36 CB        -75.1474   29.6421  -77.8732 C.3       7 UNK        -0.1958 
     37 N         -75.6658   27.3506  -77.0798 N.am      7 UNK        -0.4454 
     38 C         -75.5205   26.4957  -78.1030 C.2       7 UNK         0.5089 
     39 O         -74.7051   26.6449  -79.0145 O.2       7 UNK        -0.5125 
     40 CA        -76.4275   25.2454  -78.0726 C.3       6 UNK         0.0408 
     41 CB        -75.9105   24.1172  -78.9880 C.3       6 UNK        -0.1791 
     42 N         -76.6678   24.7177  -76.7218 N.am      6 UNK        -0.4762 
     43 C         -75.7445   24.3937  -75.8011 C.2       6 UNK         0.5007 
     44 O         -74.5349   24.5634  -75.9502 O.2       6 UNK        -0.5032 
     45 CA        -76.2575   23.7920  -74.4856 C.3       5 UNK         0.0783 
     46 C46       -76.7740   24.9067  -73.5479 C.3       11 UNK        -0.0857 
     47 S47       -77.2449   24.2528  -71.9132 S.3       11 UNK        -0.2512 
     48 C48       -76.4045   25.4220  -70.7988 C.3       11 UNK         0.0225 
     49 N         -77.2744   22.7742  -74.7575 N.am      5 UNK        -0.4615 
     50 C         -77.0152   21.4795  -74.9796 C.2       4 UNK         0.5053 
     51 O         -75.8816   20.9989  -74.9701 O.2       4 UNK        -0.5105 
     52 CA        -78.2165   20.5491  -75.2329 C.3       4 UNK         0.0263 
     53 CB        -78.5937   19.8052  -73.9411 C.3       4 UNK        -0.1981 
     54 N         -79.3959   21.2557  -75.7366 N.am      4 UNK        -0.4224 
     55 C         -79.5403   21.6934  -76.9951 C.2       3 UNK         0.4895 
     56 O         -78.7306   21.4739  -77.8962 O.2       3 UNK        -0.5091 
     57 CA        -80.7904   22.5429  -77.2935 C.3       3 UNK         0.0250 
     58 CB        -81.9357   21.6534  -77.8037 C.3       3 UNK        -0.1996 
     59 N         -81.2633   23.3426  -76.1540 N.am      3 UNK        -0.4254 
     60 C         -80.5438   24.2965  -75.5481 C.2       2 UNK         0.5004 
     61 O         -79.3783   24.5653  -75.8502 O.2       2 UNK        -0.5226 
     62 CA        -81.2102   25.0414  -74.3873 C.3       2 UNK         0.0269 
     63 CB        -81.0970   24.2421  -73.0783 C.3       2 UNK        -0.1926 
     64 N         -80.5385   26.3275  -74.2369 N.am      2 UNK        -0.4687 
     65 C         -81.1119   27.4733  -73.8595 C.2       1 UNK         0.5165 
     66 O         -82.2858   27.5557  -73.4936 O.2       1 UNK        -0.5079 
     67 H67       -78.2545   28.0348  -78.1166 H         1 UNK         0.0900 
     68 H68       -78.5658   29.7324  -77.7364 H         1 UNK         0.0900 
     69 H69       -79.9104   28.6252  -78.0350 H         1 UNK         0.0900 
     70 H70       -80.5839   29.5888  -75.8710 H         1 UNK         0.2959 
     71 H71       -79.2848   28.5345  -73.4793 H         1 UNK         0.1079 
     72 H72       -80.3173   30.8824  -73.7199 H         1 UNK         0.0837 
     73 H73       -81.8824   30.1519  -73.7153 H         1 UNK         0.0837 
     74 H74       -80.4179   28.7846  -69.6779 H         1 UNK         0.0685 
     75 H75       -80.8127   27.8532  -71.0896 H         1 UNK         0.0685 
     76 H76       -78.9526   26.3496  -70.5514 H         1 UNK         0.1434 
     77 H77       -74.9695   27.6560  -71.4301 H         1 UNK         0.1329 
     78 H78       -78.1617   30.5009  -71.3231 H         1 UNK         0.1335 
     79 H79       -75.7511   31.2004  -71.1361 H         1 UNK         0.0680 
     80 H80       -74.4808   30.0356  -71.4232 H         1 UNK         0.0680 
     81 H81       -73.9950   32.3676  -72.4928 H         1 UNK         0.1032 
     82 H82       -74.8277   32.9990  -73.8812 H         1 UNK         0.1032 
     83 H83       -73.4147   31.6911  -75.4098 H         1 UNK         0.0461 
     84 H84       -70.1875   33.6927  -74.7114 H         1 UNK         0.3453 
     85 H85       -70.4066   31.9609  -74.6323 H         1 UNK         0.3453 
     86 H86       -72.3173   29.9141  -74.8386 H         1 UNK         0.2984 
     87 H87       -70.1276   28.9352  -72.7586 H         1 UNK         0.0554 
     88 H88       -71.1956   27.1788  -71.3155 H         1 UNK         0.0847 
     89 H89       -72.6959   28.1038  -71.3096 H         1 UNK         0.0847 
     90 H90       -71.2469   28.7655  -70.5702 H         1 UNK         0.0847 
     91 H91       -72.6233   27.7182  -73.8843 H         1 UNK         0.3141 
     92 H92       -71.0157   26.9690  -76.9047 H         1 UNK         0.0743 
     93 H93       -71.9889   24.9229  -74.8416 H         1 UNK         0.0784 
     94 H94       -71.8246   24.6557  -76.5771 H         1 UNK         0.0784 
     95 H95       -70.3983   24.9317  -75.5919 H         1 UNK         0.0784 
     96 H96       -73.6396   26.3455  -76.1499 H         1 UNK         0.3213 
     97 H97       -75.2761   28.9431  -75.8557 H         1 UNK         0.0855 
     98 H98       -74.7010   30.5949  -77.5860 H         1 UNK         0.0814 
     99 H99       -76.2117   29.8200  -78.0135 H         1 UNK         0.0814 
    100 H100      -74.7232   29.3632  -78.8380 H         1 UNK         0.0814 
    101 H101      -76.4115   27.1561  -76.4148 H         1 UNK         0.3105 
    102 H102      -77.3997   25.5632  -78.4515 H         1 UNK         0.0547 
    103 H103      -75.8408   24.4510  -80.0239 H         1 UNK         0.0837 
    104 H104      -74.9190   23.7778  -78.6862 H         1 UNK         0.0837 
    105 H105      -76.5791   23.2563  -78.9706 H         1 UNK         0.0837 
    106 H106      -77.6485   24.6107  -76.4641 H         1 UNK         0.3020 
    107 H107      -75.4019   23.3180  -73.9980 H         1 UNK         0.1245 
    108 H108      -77.6407   25.4141  -73.9739 H         1 UNK         0.0781 
    109 H109      -76.0087   25.6749  -73.4208 H         1 UNK         0.0781 
    110 H110      -75.3280   25.3611  -70.9663 H         1 UNK         0.0836 
    111 H111      -76.5726   25.1090  -69.7675 H         1 UNK         0.0836 
    112 H112      -78.2226   23.1128  -74.8510 H         1 UNK         0.3022 
    113 H113      -77.9099   19.8097  -75.9761 H         1 UNK         0.0747 
    114 H114      -79.4022   19.0945  -74.1132 H         1 UNK         0.0793 
    115 H115      -77.7444   19.2396  -73.5550 H         1 UNK         0.0793 
    116 H116      -78.9102   20.4932  -73.1558 H         1 UNK         0.0793 
    117 H117      -80.1229   21.4676  -75.0693 H         1 UNK         0.3047 
    118 H118      -80.5196   23.2397  -78.0900 H         1 UNK         0.0822 
    119 H119      -82.7920   22.2497  -78.1195 H         1 UNK         0.0807 
    120 H120      -82.2759   20.9532  -77.0396 H         1 UNK         0.0807 
    121 H121      -81.6185   21.0652  -78.6663 H         1 UNK         0.0807 
    122 H122      -82.2080   23.1677  -75.8411 H         1 UNK         0.2946 
    123 H123      -82.2621   25.2016  -74.6358 H         1 UNK         0.1144 
    124 H124      -81.6127   23.2843  -73.1547 H         1 UNK         0.0793 
    125 H125      -81.5438   24.7836  -72.2442 H         1 UNK         0.0793 
    126 H126      -80.0580   24.0354  -72.8218 H         1 UNK         0.0793 
    127 H127      -79.5998   26.3615  -74.6267 H         1 UNK         0.2896 
@<TRIPOS>BOND
     1    1    2 1    
     2    1   67 1    
     3    1   68 1    
     4    1   69 1    
     5    2    3 2    
     6    2    4 am   BACKBONE|DICT|INTERRES
     7    4    5 1    
     8    4   70 1    
     9    5    6 1    
    10    5   65 1    
    11    5   71 1    
    12    6    7 1    
    13    6   72 1    
    14    6   73 1    
    15    7    8 1    
    16    8    9 1    
    17    8   74 1    
    18    8   75 1    
    19    9   10 ar   
    20    9   14 ar   
    21   10   11 ar   
    22   10   76 1    
    23   11   12 ar   
    24   11   48 1    
    25   12   13 ar   
    26   12   77 1    
    27   13   14 ar   
    28   13   15 1    
    29   14   78 1    
    30   15   16 1    
    31   15   79 1    
    32   15   80 1    
    33   16   17 1    
    34   17   18 1    
    35   17   81 1    
    36   17   82 1    
    37   18   19 1    
    38   18   22 1    
    39   18   83 1    
    40   19   20 am   BACKBONE|DICT|INTERRES
    41   19   21 2    
    42   20   84 1    
    43   20   85 1    
    44   22   23 am   BACKBONE|DICT|INTERRES
    45   22   86 1    
    46   23   24 2    
    47   23   25 1    
    48   25   26 1    
    49   25   27 1    
    50   25   87 1    
    51   26   88 1    
    52   26   89 1    
    53   26   90 1    
    54   27   28 am   BACKBONE|DICT|INTERRES
    55   27   91 1    
    56   28   29 2    
    57   28   30 1    
    58   30   31 1    
    59   30   32 1    
    60   30   92 1    
    61   31   93 1    
    62   31   94 1    
    63   31   95 1    
    64   32   33 am   BACKBONE|DICT|INTERRES
    65   32   96 1    
    66   33   34 2    
    67   33   35 1    
    68   35   36 1    
    69   35   37 1    
    70   35   97 1    
    71   36   98 1    
    72   36   99 1    
    73   36  100 1    
    74   37   38 am   BACKBONE|DICT|INTERRES
    75   37  101 1    
    76   38   39 2    
    77   38   40 1    
    78   40   41 1    
    79   40   42 1    
    80   40  102 1    
    81   41  103 1    
    82   41  104 1    
    83   41  105 1    
    84   42   43 am   BACKBONE|DICT|INTERRES
    85   42  106 1    
    86   43   44 2    
    87   43   45 1    
    88   45   46 1    
    89   45   49 1    
    90   45  107 1    
    91   46   47 1    
    92   46  108 1    
    93   46  109 1    
    94   47   48 1    
    95   48  110 1    
    96   48  111 1    
    97   49   50 am   BACKBONE|DICT|INTERRES
    98   49  112 1    
    99   50   51 2    
   100   50   52 1    
   101   52   53 1    
   102   52   54 1    
   103   52  113 1    
   104   53  114 1    
   105   53  115 1    
   106   53  116 1    
   107   54   55 am   BACKBONE|DICT|INTERRES
   108   54  117 1    
   109   55   56 2    
   110   55   57 1    
   111   57   58 1    
   112   57   59 1    
   113   57  118 1    
   114   58  119 1    
   115   58  120 1    
   116   58  121 1    
   117   59   60 am   BACKBONE|DICT|INTERRES
   118   59  122 1    
   119   60   61 2    
   120   60   62 1    
   121   62   63 1    
   122   62   64 1    
   123   62  123 1    
   124   63  124 1    
   125   63  125 1    
   126   63  126 1    
   127   64   65 am   BACKBONE|DICT|INTERRES
   128   64  127 1    
   129   65   66 2    
@<TRIPOS>SUBSTRUCTURE
     1 UNK         1 GROUP             0       ****    0 ROOT    
