@<TRIPOS>MOLECULE
3R135
127   129    1
SMALL
USER_CHARGES


@<TRIPOS>ATOM
      1 CA        -82.2693   24.3841  -72.1743 C.3       0 UNK        -0.1998 
      2 C         -82.0561   25.3365  -73.3404 C.2       0 UNK         0.4909 
      3 O         -82.7038   25.1850  -74.3770 O.2       0 UNK        -0.5240 
      4 N         -81.1490   26.3115  -73.1817 N.am      1 UNK        -0.4739 
      5 CA        -80.7772   27.3080  -74.1939 C.3       1 UNK         0.0864 
      6 C6        -79.7577   28.3348  -73.6414 C.3       11 UNK        -0.0881 
      7 S7        -80.5679   29.5761  -72.5754 S.3       11 UNK        -0.2682 
      8 C8        -80.1302   29.0388  -70.8883 C.3       11 UNK         0.0289 
      9 C9        -78.6329   29.0969  -70.6122 C.ar      11 UNK        -0.0687 
     10 C10       -77.9618   27.9568  -70.1618 C.ar      11 UNK        -0.0823 
     11 C11       -76.5835   27.9894  -69.9306 C.ar      11 UNK        -0.0830 
     12 C12       -75.8814   29.1826  -70.1194 C.ar      11 UNK        -0.1021 
     13 C13       -76.5391   30.3315  -70.5692 C.ar      11 UNK        -0.0753 
     14 C14       -77.9169   30.2838  -70.8039 C.ar      11 UNK        -0.0933 
     15 C15       -75.7646   31.6215  -70.8187 C.3       11 UNK         0.0166 
     16 S16       -74.3089   31.3881  -71.8952 S.3       11 UNK        -0.2615 
     17 C17       -75.0682   30.6479  -73.3821 C.3       11 UNK        -0.0865 
     18 CA        -74.1068   30.3984  -74.5811 C.3       10 UNK         0.0862 
     19 C         -73.6225   31.6889  -75.3116 C.2       10 UNK         0.5551 
     20 N         -72.4793   31.6726  -75.9852 N.am      10 UNK        -0.7319 
     21 O         -74.3170   32.7024  -75.3194 O.2       10 UNK        -0.5018 
     22 N         -73.1086   29.3409  -74.3225 N.am      10 UNK        -0.4509 
     23 C         -71.9175   29.4466  -73.7114 C.2       10 UNK         0.4899 
     24 O         -71.4388   30.5016  -73.2974 O.2       10 UNK        -0.4839 
     25 CA        -71.0905   28.1611  -73.5477 C.3       9 UNK         0.0222 
     26 CB        -71.3333   27.5225  -72.1694 C.3       9 UNK        -0.1966 
     27 N         -71.3574   27.1814  -74.6041 N.am      9 UNK        -0.4218 
     28 C         -70.4328   26.4154  -75.1960 C.2       9 UNK         0.5020 
     29 O         -69.2372   26.4182  -74.8981 O.2       9 UNK        -0.5274 
     30 CA        -70.9257   25.4893  -76.3211 C.3       8 UNK         0.0270 
     31 CB        -71.5933   24.2319  -75.7393 C.3       8 UNK        -0.1976 
     32 N         -71.8524   26.1516  -77.2420 N.am      8 UNK        -0.4313 
     33 C         -71.5426   27.1539  -78.0744 C.2       8 UNK         0.5041 
     34 O         -70.4079   27.6199  -78.1841 O.2       8 UNK        -0.5577 
     35 CA        -72.6775   27.7581  -78.9270 C.3       7 UNK         0.0284 
     36 CB        -72.8065   27.0268  -80.2780 C.3       7 UNK        -0.1958 
     37 N         -73.9747   27.8672  -78.2393 N.am      7 UNK        -0.4454 
     38 C         -74.7835   26.8862  -77.8168 C.2       7 UNK         0.5089 
     39 O         -74.5746   25.6861  -78.0044 O.2       7 UNK        -0.5125 
     40 CA        -76.0067   27.3281  -76.9938 C.3       6 UNK         0.0408 
     41 CB        -77.2711   27.2722  -77.8567 C.3       6 UNK        -0.1791 
     42 N         -76.2013   26.5323  -75.7736 N.am      6 UNK        -0.4762 
     43 C         -75.2593   26.3154  -74.8418 C.2       6 UNK         0.5007 
     44 O         -74.1264   26.8001  -74.9026 O.2       6 UNK        -0.5032 
     45 CA        -75.6144   25.4632  -73.6086 C.3       5 UNK         0.0783 
     46 C46       -75.6093   26.3535  -72.3439 C.3       11 UNK        -0.0857 
     47 S47       -75.9676   25.4213  -70.8127 S.3       11 UNK        -0.2512 
     48 C48       -75.8384   26.7211  -69.5378 C.3       11 UNK         0.0225 
     49 N         -76.8676   24.7116  -73.7192 N.am      5 UNK        -0.4615 
     50 C         -77.0529   23.6015  -74.4405 C.2       4 UNK         0.5053 
     51 O         -76.2596   23.1901  -75.2864 O.2       4 UNK        -0.5105 
     52 CA        -78.3012   22.7709  -74.1093 C.3       4 UNK         0.0263 
     53 CB        -78.8549   23.0095  -72.6870 C.3       4 UNK        -0.1981 
     54 N         -79.3552   23.0113  -75.0907 N.am      4 UNK        -0.4224 
     55 C         -80.1767   22.0607  -75.5612 C.2       3 UNK         0.4895 
     56 O         -80.0752   20.8705  -75.2581 O.2       3 UNK        -0.5091 
     57 CA        -81.3266   22.4764  -76.4995 C.3       3 UNK         0.0250 
     58 CB        -82.6868   22.0525  -75.9167 C.3       3 UNK        -0.1996 
     59 N         -81.3614   23.9141  -76.7682 N.am      3 UNK        -0.4254 
     60 C         -80.6991   24.5174  -77.7644 C.2       2 UNK         0.5004 
     61 O         -80.0147   23.9185  -78.5940 O.2       2 UNK        -0.5226 
     62 CA        -80.8007   26.0513  -77.8445 C.3       2 UNK         0.0269 
     63 CB        -81.9127   26.4606  -78.8235 C.3       2 UNK        -0.1926 
     64 N         -81.0337   26.7094  -76.5538 N.am      2 UNK        -0.4687 
     65 C         -80.2491   26.6226  -75.4694 C.2       1 UNK         0.5165 
     66 O         -79.1868   25.9966  -75.4331 O.2       1 UNK        -0.5079 
     67 H67       -83.3034   24.4348  -71.8347 H         1 UNK         0.0900 
     68 H68       -82.0632   23.3604  -72.4856 H         1 UNK         0.0900 
     69 H69       -81.6223   24.6194  -71.3296 H         1 UNK         0.0900 
     70 H70       -80.6531   26.3816  -72.3065 H         1 UNK         0.2959 
     71 H71       -81.6890   27.8460  -74.4634 H         1 UNK         0.1079 
     72 H72       -79.2869   28.8901  -74.4555 H         1 UNK         0.0837 
     73 H73       -78.9418   27.8385  -73.1130 H         1 UNK         0.0837 
     74 H74       -80.5220   28.0342  -70.7245 H         1 UNK         0.0685 
     75 H75       -80.6406   29.6858  -70.1738 H         1 UNK         0.0685 
     76 H76       -78.5019   27.0308  -70.0191 H         1 UNK         0.1434 
     77 H77       -74.8135   29.2128  -69.9503 H         1 UNK         0.1329 
     78 H78       -78.4351   31.1664  -71.1533 H         1 UNK         0.1335 
     79 H79       -76.4085   32.3798  -71.2669 H         1 UNK         0.0680 
     80 H80       -75.4331   32.0243  -69.8609 H         1 UNK         0.0680 
     81 H81       -75.5195   29.6979  -73.0926 H         1 UNK         0.1032 
     82 H82       -75.9027   31.2790  -73.6933 H         1 UNK         0.1032 
     83 H83       -74.7383   29.9402  -75.3416 H         1 UNK         0.0461 
     84 H84       -72.1787   32.5037  -76.4692 H         1 UNK         0.3453 
     85 H85       -71.8910   30.8556  -75.9670 H         1 UNK         0.3453 
     86 H86       -73.4197   28.4134  -74.5949 H         1 UNK         0.2984 
     87 H87       -70.0432   28.4664  -73.5996 H         1 UNK         0.0554 
     88 H88       -71.1627   28.2428  -71.3680 H         1 UNK         0.0847 
     89 H89       -70.6594   26.6828  -71.9990 H         1 UNK         0.0847 
     90 H90       -72.3543   27.1568  -72.0685 H         1 UNK         0.0847 
     91 H91       -72.3269   27.0597  -74.8870 H         1 UNK         0.3141 
     92 H92       -70.0529   25.1752  -76.8975 H         1 UNK         0.0743 
     93 H93       -70.9188   23.7119  -75.0575 H         1 UNK         0.0784 
     94 H94       -71.8639   23.5275  -76.5261 H         1 UNK         0.0784 
     95 H95       -72.4991   24.4734  -75.1819 H         1 UNK         0.0784 
     96 H96       -72.8131   25.8184  -77.2601 H         1 UNK         0.3213 
     97 H97       -72.3797   28.7854  -79.1446 H         1 UNK         0.0855 
     98 H98       -73.0676   25.9756  -80.1535 H         1 UNK         0.0814 
     99 H99       -71.8647   27.0605  -80.8273 H         1 UNK         0.0814 
    100 H100      -73.5657   27.4891  -80.9089 H         1 UNK         0.0814 
    101 H101      -74.2440   28.8145  -78.0121 H         1 UNK         0.3105 
    102 H102      -75.8603   28.3626  -76.6805 H         1 UNK         0.0547 
    103 H103      -78.1147   27.7286  -77.3407 H         1 UNK         0.0837 
    104 H104      -77.5312   26.2432  -78.1081 H         1 UNK         0.0837 
    105 H105      -77.1367   27.8151  -78.7933 H         1 UNK         0.0837 
    106 H106      -77.1166   26.1145  -75.6400 H         1 UNK         0.3020 
    107 H107      -74.8070   24.7342  -73.5071 H         1 UNK         0.1245 
    108 H108      -74.6470   26.8515  -72.2187 H         1 UNK         0.0781 
    109 H109      -76.3509   27.1465  -72.4556 H         1 UNK         0.0781 
    110 H110      -74.7825   26.9309  -69.3599 H         1 UNK         0.0836 
    111 H111      -76.2396   26.3415  -68.5972 H         1 UNK         0.0836 
    112 H112      -77.5836   24.9697  -73.0575 H         1 UNK         0.3022 
    113 H113      -77.9768   21.7294  -74.1646 H         1 UNK         0.0747 
    114 H114      -79.6446   22.2957  -72.4521 H         1 UNK         0.0793 
    115 H115      -78.0765   22.8809  -71.9332 H         1 UNK         0.0793 
    116 H116      -79.2708   24.0100  -72.5700 H         1 UNK         0.0793 
    117 H117      -79.4508   23.9691  -75.4138 H         1 UNK         0.3047 
    118 H118      -81.1835   21.9371  -77.4384 H         1 UNK         0.0822 
    119 H119      -83.5062   22.3261  -76.5815 H         1 UNK         0.0807 
    120 H120      -82.8732   22.5149  -74.9470 H         1 UNK         0.0807 
    121 H121      -82.7346   20.9718  -75.7758 H         1 UNK         0.0807 
    122 H122      -81.8863   24.4834  -76.1100 H         1 UNK         0.2946 
    123 H123      -79.8557   26.4144  -78.2446 H         1 UNK         0.1144 
    124 H124      -81.9354   27.5405  -78.9710 H         1 UNK         0.0793 
    125 H125      -82.8965   26.1474  -78.4712 H         1 UNK         0.0793 
    126 H126      -81.7578   26.0059  -79.8032 H         1 UNK         0.0793 
    127 H127      -81.9045   27.2148  -76.4711 H         1 UNK         0.2896 
@<TRIPOS>BOND
     1    1    2 1    
     2    1   67 1    
     3    1   68 1    
     4    1   69 1    
     5    2    3 2    
     6    2    4 am   BACKBONE|DICT|INTERRES
     7    4    5 1    
     8    4   70 1    
     9    5    6 1    
    10    5   65 1    
    11    5   71 1    
    12    6    7 1    
    13    6   72 1    
    14    6   73 1    
    15    7    8 1    
    16    8    9 1    
    17    8   74 1    
    18    8   75 1    
    19    9   10 ar   
    20    9   14 ar   
    21   10   11 ar   
    22   10   76 1    
    23   11   12 ar   
    24   11   48 1    
    25   12   13 ar   
    26   12   77 1    
    27   13   14 ar   
    28   13   15 1    
    29   14   78 1    
    30   15   16 1    
    31   15   79 1    
    32   15   80 1    
    33   16   17 1    
    34   17   18 1    
    35   17   81 1    
    36   17   82 1    
    37   18   19 1    
    38   18   22 1    
    39   18   83 1    
    40   19   20 am   BACKBONE|DICT|INTERRES
    41   19   21 2    
    42   20   84 1    
    43   20   85 1    
    44   22   23 am   BACKBONE|DICT|INTERRES
    45   22   86 1    
    46   23   24 2    
    47   23   25 1    
    48   25   26 1    
    49   25   27 1    
    50   25   87 1    
    51   26   88 1    
    52   26   89 1    
    53   26   90 1    
    54   27   28 am   BACKBONE|DICT|INTERRES
    55   27   91 1    
    56   28   29 2    
    57   28   30 1    
    58   30   31 1    
    59   30   32 1    
    60   30   92 1    
    61   31   93 1    
    62   31   94 1    
    63   31   95 1    
    64   32   33 am   BACKBONE|DICT|INTERRES
    65   32   96 1    
    66   33   34 2    
    67   33   35 1    
    68   35   36 1    
    69   35   37 1    
    70   35   97 1    
    71   36   98 1    
    72   36   99 1    
    73   36  100 1    
    74   37   38 am   BACKBONE|DICT|INTERRES
    75   37  101 1    
    76   38   39 2    
    77   38   40 1    
    78   40   41 1    
    79   40   42 1    
    80   40  102 1    
    81   41  103 1    
    82   41  104 1    
    83   41  105 1    
    84   42   43 am   BACKBONE|DICT|INTERRES
    85   42  106 1    
    86   43   44 2    
    87   43   45 1    
    88   45   46 1    
    89   45   49 1    
    90   45  107 1    
    91   46   47 1    
    92   46  108 1    
    93   46  109 1    
    94   47   48 1    
    95   48  110 1    
    96   48  111 1    
    97   49   50 am   BACKBONE|DICT|INTERRES
    98   49  112 1    
    99   50   51 2    
   100   50   52 1    
   101   52   53 1    
   102   52   54 1    
   103   52  113 1    
   104   53  114 1    
   105   53  115 1    
   106   53  116 1    
   107   54   55 am   BACKBONE|DICT|INTERRES
   108   54  117 1    
   109   55   56 2    
   110   55   57 1    
   111   57   58 1    
   112   57   59 1    
   113   57  118 1    
   114   58  119 1    
   115   58  120 1    
   116   58  121 1    
   117   59   60 am   BACKBONE|DICT|INTERRES
   118   59  122 1    
   119   60   61 2    
   120   60   62 1    
   121   62   63 1    
   122   62   64 1    
   123   62  123 1    
   124   63  124 1    
   125   63  125 1    
   126   63  126 1    
   127   64   65 am   BACKBONE|DICT|INTERRES
   128   64  127 1    
   129   65   66 2    
@<TRIPOS>SUBSTRUCTURE
     1 UNK         1 GROUP             0       ****    0 ROOT    
