@<TRIPOS>MOLECULE
3R135
127   129    1
SMALL
USER_CHARGES


@<TRIPOS>ATOM
      1 CA        -84.1950   28.6659  -72.4582 C.3       0 UNK        -0.1998 
      2 C         -83.4016   29.0198  -73.7070 C.2       0 UNK         0.4909 
      3 O         -83.9923   29.3734  -74.7279 O.2       0 UNK        -0.5240 
      4 N         -82.0673   28.9310  -73.6302 N.am      1 UNK        -0.4739 
      5 CA        -81.1437   29.2060  -74.7391 C.3       1 UNK         0.0864 
      6 C6        -79.6841   29.3768  -74.2475 C.3       11 UNK        -0.0881 
      7 S7        -79.4628   30.8688  -73.2209 S.3       11 UNK        -0.2682 
      8 C8        -79.5871   30.2251  -71.5224 C.3       11 UNK         0.0289 
      9 C9        -78.4164   29.3308  -71.1389 C.ar      11 UNK        -0.0687 
     10 C10       -78.5955   27.9496  -71.0135 C.ar      11 UNK        -0.0823 
     11 C11       -77.5455   27.1321  -70.5856 C.ar      11 UNK        -0.0830 
     12 C12       -76.3034   27.7060  -70.2953 C.ar      11 UNK        -0.1021 
     13 C13       -76.1061   29.0835  -70.4315 C.ar      11 UNK        -0.0753 
     14 C14       -77.1683   29.8914  -70.8504 C.ar      11 UNK        -0.0933 
     15 C15       -74.7609   29.6993  -70.0691 C.3       11 UNK         0.0166 
     16 S16       -73.5124   29.4770  -71.3773 S.3       11 UNK        -0.2615 
     17 C17       -74.0916   30.6427  -72.6573 C.3       11 UNK        -0.0865 
     18 CA        -74.3020   29.9509  -74.0361 C.3       10 UNK         0.0862 
     19 C         -75.1105   30.8495  -75.0192 C.2       10 UNK         0.5551 
     20 N         -76.3684   31.1244  -74.7037 N.am      10 UNK        -0.7319 
     21 O         -74.6327   31.3039  -76.0566 O.2       10 UNK        -0.5018 
     22 N         -73.0617   29.4005  -74.6199 N.am      10 UNK        -0.4509 
     23 C         -71.9645   30.0921  -74.9622 C.2       10 UNK         0.4899 
     24 O         -71.8104   31.2897  -74.7162 O.2       10 UNK        -0.4839 
     25 CA        -70.8506   29.3744  -75.7530 C.3       9 UNK         0.0222 
     26 CB        -69.4556   29.6318  -75.1428 C.3       9 UNK        -0.1966 
     27 N         -71.0566   27.9448  -76.0201 N.am      9 UNK        -0.4218 
     28 C         -71.0102   26.9159  -75.1643 C.2       9 UNK         0.5020 
     29 O         -70.8644   27.0411  -73.9476 O.2       9 UNK        -0.5274 
     30 CA        -71.1179   25.5085  -75.7924 C.3       8 UNK         0.0270 
     31 CB        -71.0611   24.3851  -74.7410 C.3       8 UNK        -0.1976 
     32 N         -72.3214   25.3342  -76.6122 N.am      8 UNK        -0.4313 
     33 C         -72.5222   25.8474  -77.8339 C.2       8 UNK         0.5041 
     34 O         -71.6886   26.5342  -78.4270 O.2       8 UNK        -0.5577 
     35 CA        -73.8969   25.6012  -78.4771 C.3       7 UNK         0.0284 
     36 CB        -73.9872   24.1911  -79.0829 C.3       7 UNK        -0.1958 
     37 N         -74.9849   25.8087  -77.5197 N.am      7 UNK        -0.4454 
     38 C         -75.3471   27.0092  -77.0436 C.2       7 UNK         0.5089 
     39 O         -74.8734   28.0747  -77.4356 O.2       7 UNK        -0.5125 
     40 CA        -76.3949   27.0200  -75.9199 C.3       6 UNK         0.0408 
     41 CB        -77.8132   27.0289  -76.5010 C.3       6 UNK        -0.1791 
     42 N         -76.2399   25.8859  -75.0069 N.am      6 UNK        -0.4762 
     43 C         -75.2092   25.7366  -74.1595 C.2       6 UNK         0.5007 
     44 O         -74.3093   26.5651  -74.0327 O.2       6 UNK        -0.5032 
     45 CA        -75.1239   24.4123  -73.3715 C.3       5 UNK         0.0783 
     46 C46       -75.7293   24.5169  -71.9536 C.3       11 UNK        -0.0857 
     47 S47       -77.5459   24.6902  -71.9195 S.3       11 UNK        -0.2512 
     48 C48       -77.7788   25.6405  -70.3853 C.3       11 UNK         0.0225 
     49 N         -75.6476   23.2692  -74.1247 N.am      5 UNK        -0.4615 
     50 C         -75.0743   22.7839  -75.2328 C.2       4 UNK         0.5053 
     51 O         -74.0382   23.2410  -75.7130 O.2       4 UNK        -0.5105 
     52 CA        -75.7778   21.6198  -75.9480 C.3       4 UNK         0.0263 
     53 CB        -75.2226   20.2759  -75.4509 C.3       4 UNK        -0.1981 
     54 N         -77.2391   21.6207  -75.8217 N.am      4 UNK        -0.4224 
     55 C         -78.0532   22.5928  -76.2572 C.2       3 UNK         0.4895 
     56 O         -77.6463   23.6412  -76.7633 O.2       3 UNK        -0.5091 
     57 CA        -79.5656   22.3108  -76.1506 C.3       3 UNK         0.0250 
     58 CB        -79.9666   21.6603  -74.8055 C.3       3 UNK        -0.1996 
     59 N         -80.3934   23.4896  -76.4430 N.am      3 UNK        -0.4254 
     60 C         -80.5395   24.5919  -75.6938 C.2       2 UNK         0.5004 
     61 O         -80.0071   24.7637  -74.5945 O.2       2 UNK        -0.5226 
     62 CA        -81.4603   25.6783  -76.2725 C.3       2 UNK         0.0269 
     63 CB        -82.9188   25.1908  -76.3563 C.3       2 UNK        -0.1926 
     64 N         -81.4162   26.8642  -75.4190 N.am      2 UNK        -0.4687 
     65 C         -81.2220   28.1215  -75.8339 C.2       1 UNK         0.5165 
     66 O         -81.1032   28.4426  -77.0171 O.2       1 UNK        -0.5079 
     67 H67       -84.7980   29.5172  -72.1434 H         1 UNK         0.0900 
     68 H68       -84.8646   27.8312  -72.6638 H         1 UNK         0.0900 
     69 H69       -83.5472   28.3846  -71.6281 H         1 UNK         0.0900 
     70 H70       -81.6404   28.6437  -72.7629 H         1 UNK         0.2959 
     71 H71       -81.4551   30.1428  -75.2076 H         1 UNK         0.1079 
     72 H72       -79.3416   28.4909  -73.7107 H         1 UNK         0.0837 
     73 H73       -79.0097   29.4868  -75.0991 H         1 UNK         0.0837 
     74 H74       -80.5349   29.7018  -71.3957 H         1 UNK         0.0685 
     75 H75       -79.6230   31.0725  -70.8361 H         1 UNK         0.0685 
     76 H76       -79.5603   27.5089  -71.2236 H         1 UNK         0.1434 
     77 H77       -75.4893   27.0871  -69.9449 H         1 UNK         0.1329 
     78 H78       -77.0344   30.9614  -70.9313 H         1 UNK         0.1335 
     79 H79       -74.3899   29.2355  -69.1539 H         1 UNK         0.0680 
     80 H80       -74.8678   30.7618  -69.8444 H         1 UNK         0.0680 
     81 H81       -75.0183   31.1030  -72.3152 H         1 UNK         0.1032 
     82 H82       -73.3795   31.4648  -72.7299 H         1 UNK         0.1032 
     83 H83       -74.9364   29.0836  -73.8593 H         1 UNK         0.0461 
     84 H84       -76.8002   30.7579  -73.8698 H         1 UNK         0.3453 
     85 H85       -76.9054   31.7089  -75.3242 H         1 UNK         0.3453 
     86 H86       -73.0948   28.4110  -74.8269 H         1 UNK         0.2984 
     87 H87       -70.8567   29.8425  -76.7383 H         1 UNK         0.0554 
     88 H88       -69.2342   30.6991  -75.1052 H         1 UNK         0.0847 
     89 H89       -68.6690   29.1622  -75.7333 H         1 UNK         0.0847 
     90 H90       -69.3832   29.2532  -74.1229 H         1 UNK         0.0847 
     91 H91       -71.2191   27.6996  -76.9955 H         1 UNK         0.3141 
     92 H92       -70.2485   25.3879  -76.4421 H         1 UNK         0.0743 
     93 H93       -70.1307   24.4270  -74.1732 H         1 UNK         0.0784 
     94 H94       -71.8813   24.4630  -74.0283 H         1 UNK         0.0784 
     95 H95       -71.1128   23.4003  -75.2060 H         1 UNK         0.0784 
     96 H96       -73.0483   24.7408  -76.2174 H         1 UNK         0.3213 
     97 H97       -74.0179   26.3228  -79.2882 H         1 UNK         0.0855 
     98 H98       -73.8586   23.4114  -78.3325 H         1 UNK         0.0814 
     99 H99       -73.2127   24.0445  -79.8370 H         1 UNK         0.0814 
    100 H100      -74.9485   24.0302  -79.5712 H         1 UNK         0.0814 
    101 H101      -75.4358   24.9871  -77.1396 H         1 UNK         0.3105 
    102 H102      -76.2688   27.9364  -75.3428 H         1 UNK         0.0547 
    103 H103      -77.9857   26.1928  -77.1784 H         1 UNK         0.0837 
    104 H104      -77.9992   27.9454  -77.0624 H         1 UNK         0.0837 
    105 H105      -78.5537   26.9730  -75.7060 H         1 UNK         0.0837 
    106 H106      -76.9242   25.1430  -75.0792 H         1 UNK         0.3020 
    107 H107      -74.0573   24.2258  -73.2317 H         1 UNK         0.1245 
    108 H108      -75.2657   25.3469  -71.4209 H         1 UNK         0.0781 
    109 H109      -75.4715   23.6245  -71.3812 H         1 UNK         0.0781 
    110 H110      -77.1234   25.2493  -69.6055 H         1 UNK         0.0836 
    111 H111      -78.7967   25.4765  -70.0282 H         1 UNK         0.0836 
    112 H112      -76.5116   22.8653  -73.7934 H         1 UNK         0.3022 
    113 H113      -75.5446   21.7110  -77.0110 H         1 UNK         0.0747 
    114 H114      -75.6278   19.4415  -76.0237 H         1 UNK         0.0793 
    115 H115      -74.1370   20.2397  -75.5554 H         1 UNK         0.0793 
    116 H116      -75.4541   20.1068  -74.3985 H         1 UNK         0.0793 
    117 H117      -77.6548   20.7907  -75.4243 H         1 UNK         0.3047 
    118 H118      -79.7917   21.5940  -76.9415 H         1 UNK         0.0822 
    119 H119      -81.0493   21.5668  -74.7197 H         1 UNK         0.0807 
    120 H120      -79.6155   22.2404  -73.9510 H         1 UNK         0.0807 
    121 H121      -79.5564   20.6550  -74.7075 H         1 UNK         0.0807 
    122 H122      -80.8547   23.4688  -77.3417 H         1 UNK         0.2946 
    123 H123      -81.0975   25.9182  -77.2748 H         1 UNK         0.1144 
    124 H124      -83.5737   25.9731  -76.7408 H         1 UNK         0.0793 
    125 H125      -83.2987   24.8895  -75.3792 H         1 UNK         0.0793 
    126 H126      -83.0170   24.3344  -77.0242 H         1 UNK         0.0793 
    127 H127      -81.4236   26.6753  -74.4260 H         1 UNK         0.2896 
@<TRIPOS>BOND
     1    1    2 1    
     2    1   67 1    
     3    1   68 1    
     4    1   69 1    
     5    2    3 2    
     6    2    4 am   BACKBONE|DICT|INTERRES
     7    4    5 1    
     8    4   70 1    
     9    5    6 1    
    10    5   65 1    
    11    5   71 1    
    12    6    7 1    
    13    6   72 1    
    14    6   73 1    
    15    7    8 1    
    16    8    9 1    
    17    8   74 1    
    18    8   75 1    
    19    9   10 ar   
    20    9   14 ar   
    21   10   11 ar   
    22   10   76 1    
    23   11   12 ar   
    24   11   48 1    
    25   12   13 ar   
    26   12   77 1    
    27   13   14 ar   
    28   13   15 1    
    29   14   78 1    
    30   15   16 1    
    31   15   79 1    
    32   15   80 1    
    33   16   17 1    
    34   17   18 1    
    35   17   81 1    
    36   17   82 1    
    37   18   19 1    
    38   18   22 1    
    39   18   83 1    
    40   19   20 am   BACKBONE|DICT|INTERRES
    41   19   21 2    
    42   20   84 1    
    43   20   85 1    
    44   22   23 am   BACKBONE|DICT|INTERRES
    45   22   86 1    
    46   23   24 2    
    47   23   25 1    
    48   25   26 1    
    49   25   27 1    
    50   25   87 1    
    51   26   88 1    
    52   26   89 1    
    53   26   90 1    
    54   27   28 am   BACKBONE|DICT|INTERRES
    55   27   91 1    
    56   28   29 2    
    57   28   30 1    
    58   30   31 1    
    59   30   32 1    
    60   30   92 1    
    61   31   93 1    
    62   31   94 1    
    63   31   95 1    
    64   32   33 am   BACKBONE|DICT|INTERRES
    65   32   96 1    
    66   33   34 2    
    67   33   35 1    
    68   35   36 1    
    69   35   37 1    
    70   35   97 1    
    71   36   98 1    
    72   36   99 1    
    73   36  100 1    
    74   37   38 am   BACKBONE|DICT|INTERRES
    75   37  101 1    
    76   38   39 2    
    77   38   40 1    
    78   40   41 1    
    79   40   42 1    
    80   40  102 1    
    81   41  103 1    
    82   41  104 1    
    83   41  105 1    
    84   42   43 am   BACKBONE|DICT|INTERRES
    85   42  106 1    
    86   43   44 2    
    87   43   45 1    
    88   45   46 1    
    89   45   49 1    
    90   45  107 1    
    91   46   47 1    
    92   46  108 1    
    93   46  109 1    
    94   47   48 1    
    95   48  110 1    
    96   48  111 1    
    97   49   50 am   BACKBONE|DICT|INTERRES
    98   49  112 1    
    99   50   51 2    
   100   50   52 1    
   101   52   53 1    
   102   52   54 1    
   103   52  113 1    
   104   53  114 1    
   105   53  115 1    
   106   53  116 1    
   107   54   55 am   BACKBONE|DICT|INTERRES
   108   54  117 1    
   109   55   56 2    
   110   55   57 1    
   111   57   58 1    
   112   57   59 1    
   113   57  118 1    
   114   58  119 1    
   115   58  120 1    
   116   58  121 1    
   117   59   60 am   BACKBONE|DICT|INTERRES
   118   59  122 1    
   119   60   61 2    
   120   60   62 1    
   121   62   63 1    
   122   62   64 1    
   123   62  123 1    
   124   63  124 1    
   125   63  125 1    
   126   63  126 1    
   127   64   65 am   BACKBONE|DICT|INTERRES
   128   64  127 1    
   129   65   66 2    
@<TRIPOS>SUBSTRUCTURE
     1 UNK         1 GROUP             0       ****    0 ROOT    
