@<TRIPOS>MOLECULE
3R135
127   129    1
SMALL
USER_CHARGES


@<TRIPOS>ATOM
      1 CA        -78.4483   27.4369  -69.5056 C.3       0 UNK        -0.1998 
      2 C         -79.7874   27.0204  -70.0939 C.2       0 UNK         0.4909 
      3 O         -80.6919   26.6372  -69.3515 O.2       0 UNK        -0.5240 
      4 N         -79.9160   27.0835  -71.4217 N.am      1 UNK        -0.4739 
      5 CA        -81.0845   26.6479  -72.1835 C.3       1 UNK         0.0864 
      6 C6        -82.2212   27.7094  -72.1976 C.3       11 UNK        -0.0881 
      7 S7        -81.9987   29.1233  -73.3367 S.3       11 UNK        -0.2682 
      8 C8        -81.1836   30.3740  -72.2885 C.3       11 UNK         0.0289 
      9 C9        -79.6688   30.4265  -72.4699 C.ar      11 UNK        -0.0687 
     10 C10       -79.1011   30.4490  -73.7487 C.ar      11 UNK        -0.0823 
     11 C11       -77.7197   30.5779  -73.9133 C.ar      11 UNK        -0.0830 
     12 C12       -76.9041   30.7061  -72.7868 C.ar      11 UNK        -0.1021 
     13 C13       -77.4476   30.6532  -71.4970 C.ar      11 UNK        -0.0753 
     14 C14       -78.8332   30.5207  -71.3523 C.ar      11 UNK        -0.0933 
     15 C15       -76.5851   30.7639  -70.2372 C.3       11 UNK         0.0166 
     16 S16       -74.8112   30.3735  -70.4456 S.3       11 UNK        -0.2615 
     17 C17       -74.8601   28.6159  -70.9434 C.3       11 UNK        -0.0865 
     18 CA        -73.5758   28.1794  -71.6989 C.3       10 UNK         0.0862 
     19 C         -73.5730   26.6465  -71.9780 C.2       10 UNK         0.5551 
     20 N         -73.3290   26.1870  -73.1988 N.am      10 UNK        -0.7319 
     21 O         -73.7998   25.8575  -71.0646 O.2       10 UNK        -0.5018 
     22 N         -73.3382   29.0044  -72.8952 N.am      10 UNK        -0.4509 
     23 C         -72.1378   29.2289  -73.4372 C.2       10 UNK         0.4899 
     24 O         -71.0709   28.8434  -72.9549 O.2       10 UNK        -0.4839 
     25 CA        -72.1311   30.0112  -74.7597 C.3       9 UNK         0.0222 
     26 CB        -71.4548   31.3803  -74.5822 C.3       9 UNK        -0.1966 
     27 N         -71.4610   29.2651  -75.8272 N.am      9 UNK        -0.4218 
     28 C         -71.8534   28.0718  -76.2937 C.2       9 UNK         0.5020 
     29 O         -72.8296   27.4472  -75.8693 O.2       9 UNK        -0.5274 
     30 CA        -70.9968   27.4573  -77.4112 C.3       8 UNK         0.0270 
     31 CB        -70.1591   26.2880  -76.8691 C.3       8 UNK        -0.1976 
     32 N         -71.8486   26.9761  -78.4965 N.am      8 UNK        -0.4313 
     33 C         -72.5034   27.7563  -79.3635 C.2       8 UNK         0.5041 
     34 O         -72.3541   28.9776  -79.4265 O.2       8 UNK        -0.5577 
     35 CA        -73.5067   27.0756  -80.3130 C.3       7 UNK         0.0284 
     36 CB        -72.7996   26.4822  -81.5475 C.3       7 UNK        -0.1958 
     37 N         -74.3833   26.0946  -79.6553 N.am      7 UNK        -0.4454 
     38 C         -74.0767   24.9022  -79.1280 C.2       7 UNK         0.5089 
     39 O         -72.9425   24.4197  -79.1266 O.2       7 UNK        -0.5125 
     40 CA        -75.2280   24.1699  -78.4182 C.3       6 UNK         0.0408 
     41 CB        -74.9315   22.6759  -78.1983 C.3       6 UNK        -0.1791 
     42 N         -75.4979   24.7898  -77.1230 N.am      6 UNK        -0.4762 
     43 C         -76.1402   25.9466  -76.9178 C.2       6 UNK         0.5007 
     44 O         -76.6420   26.6048  -77.8324 O.2       6 UNK        -0.5032 
     45 CA        -76.2393   26.4232  -75.4507 C.3       5 UNK         0.0783 
     46 C46       -76.9998   27.7644  -75.2727 C.3       11 UNK        -0.0857 
     47 S47       -75.9317   29.2130  -75.5570 S.3       11 UNK        -0.2512 
     48 C48       -77.1078   30.5837  -75.3086 C.3       11 UNK         0.0225 
     49 N         -76.8090   25.3915  -74.5810 N.am      5 UNK        -0.4615 
     50 C         -76.1781   24.3148  -74.0956 C.2       4 UNK         0.5053 
     51 O         -75.0208   24.0072  -74.3832 O.2       4 UNK        -0.5105 
     52 CA        -76.9866   23.4235  -73.1454 C.3       4 UNK         0.0263 
     53 CB        -77.1489   24.0965  -71.7711 C.3       4 UNK        -0.1981 
     54 N         -78.3030   23.1200  -73.7055 N.am      4 UNK        -0.4224 
     55 C         -78.5459   22.1310  -74.5774 C.2       3 UNK         0.4895 
     56 O         -77.6922   21.3336  -74.9667 O.2       3 UNK        -0.5091 
     57 CA        -79.9883   21.9951  -75.0978 C.3       3 UNK         0.0250 
     58 CB        -80.7819   21.0063  -74.2283 C.3       3 UNK        -0.1996 
     59 N         -80.7011   23.2738  -75.1492 N.am      3 UNK        -0.4254 
     60 C         -80.4726   24.2296  -76.0608 C.2       2 UNK         0.5004 
     61 O         -79.6811   24.1108  -76.9957 O.2       2 UNK        -0.5226 
     62 CA        -81.2449   25.5497  -75.8889 C.3       2 UNK         0.0269 
     63 CB        -82.5551   25.5173  -76.6919 C.3       2 UNK        -0.1926 
     64 N         -81.5394   25.9025  -74.4930 N.am      2 UNK        -0.4687 
     65 C         -80.6060   26.1688  -73.5686 C.2       1 UNK         0.5165 
     66 O         -79.3977   26.0317  -73.7776 O.2       1 UNK        -0.5079 
     67 H67       -78.5875   28.2506  -68.7947 H         1 UNK         0.0900 
     68 H68       -77.7557   27.7713  -70.2768 H         1 UNK         0.0900 
     69 H69       -77.9916   26.5983  -68.9807 H         1 UNK         0.0900 
     70 H70       -79.1378   27.3649  -72.0040 H         1 UNK         0.2959 
     71 H71       -81.4753   25.7524  -71.6949 H         1 UNK         0.1079 
     72 H72       -83.1568   27.2243  -72.4798 H         1 UNK         0.0837 
     73 H73       -82.4011   28.0811  -71.1880 H         1 UNK         0.0837 
     74 H74       -81.5871   31.3527  -72.5509 H         1 UNK         0.0685 
     75 H75       -81.4473   30.2087  -71.2430 H         1 UNK         0.0685 
     76 H76       -79.7399   30.3768  -74.6182 H         1 UNK         0.1434 
     77 H77       -75.8408   30.8328  -72.9274 H         1 UNK         0.1329 
     78 H78       -79.2657   30.5093  -70.3610 H         1 UNK         0.1335 
     79 H79       -76.6657   31.7836  -69.8588 H         1 UNK         0.0680 
     80 H80       -76.9845   30.1152  -69.4568 H         1 UNK         0.0680 
     81 H81       -75.7369   28.4289  -71.5648 H         1 UNK         0.1032 
     82 H82       -74.9965   28.0208  -70.0384 H         1 UNK         0.1032 
     83 H83       -72.7401   28.3443  -71.0160 H         1 UNK         0.0461 
     84 H84       -73.1292   26.8134  -73.9703 H         1 UNK         0.3453 
     85 H85       -73.3954   25.1948  -73.3723 H         1 UNK         0.3453 
     86 H86       -74.1615   29.3229  -73.3845 H         1 UNK         0.2984 
     87 H87       -73.1603   30.1848  -75.0780 H         1 UNK         0.0554 
     88 H88       -71.4998   31.9691  -75.4985 H         1 UNK         0.0847 
     89 H89       -70.4068   31.2802  -74.2964 H         1 UNK         0.0847 
     90 H90       -71.9502   31.9599  -73.8019 H         1 UNK         0.0847 
     91 H91       -70.6302   29.6864  -76.2165 H         1 UNK         0.3141 
     92 H92       -70.3200   28.2152  -77.8115 H         1 UNK         0.0743 
     93 H93       -69.5027   26.6189  -76.0632 H         1 UNK         0.0784 
     94 H94       -70.7898   25.4920  -76.4700 H         1 UNK         0.0784 
     95 H95       -69.5279   25.8575  -77.6467 H         1 UNK         0.0784 
     96 H96       -72.0608   25.9820  -78.5176 H         1 UNK         0.3213 
     97 H97       -74.1736   27.8620  -80.6704 H         1 UNK         0.0855 
     98 H98       -72.2452   27.2541  -82.0829 H         1 UNK         0.0814 
     99 H99       -73.5167   26.0541  -82.2478 H         1 UNK         0.0814 
    100 H100      -72.0861   25.7030  -81.2790 H         1 UNK         0.0814 
    101 H101      -75.3263   26.4229  -79.4701 H         1 UNK         0.3105 
    102 H102      -76.1198   24.2471  -79.0439 H         1 UNK         0.0547 
    103 H103      -74.7204   22.1769  -79.1449 H         1 UNK         0.0837 
    104 H104      -74.0679   22.5244  -77.5493 H         1 UNK         0.0837 
    105 H105      -75.7823   22.1664  -77.7450 H         1 UNK         0.0837 
    106 H106      -75.1131   24.3262  -76.3045 H         1 UNK         0.3020 
    107 H107      -75.2119   26.5808  -75.1200 H         1 UNK         0.1245 
    108 H108      -77.3610   27.8470  -74.2464 H         1 UNK         0.0781 
    109 H109      -77.8905   27.8190  -75.9015 H         1 UNK         0.0781 
    110 H110      -77.8814   30.5272  -76.0759 H         1 UNK         0.0836 
    111 H111      -76.5874   31.5294  -75.4656 H         1 UNK         0.0836 
    112 H112      -77.7768   25.5498  -74.3056 H         1 UNK         0.3022 
    113 H113      -76.4328   22.4931  -73.0009 H         1 UNK         0.0747 
    114 H114      -77.6810   23.4494  -71.0738 H         1 UNK         0.0793 
    115 H115      -76.1756   24.3164  -71.3300 H         1 UNK         0.0793 
    116 H116      -77.6947   25.0380  -71.8365 H         1 UNK         0.0793 
    117 H117      -79.0487   23.7654  -73.4873 H         1 UNK         0.3047 
    118 H118      -79.9350   21.5902  -76.1110 H         1 UNK         0.0822 
    119 H119      -81.7835   20.8427  -74.6266 H         1 UNK         0.0807 
    120 H120      -80.8812   21.3580  -73.2006 H         1 UNK         0.0807 
    121 H121      -80.2870   20.0346  -74.1934 H         1 UNK         0.0807 
    122 H122      -81.3877   23.4510  -74.4304 H         1 UNK         0.2946 
    123 H123      -80.6125   26.3407  -76.2997 H         1 UNK         0.1144 
    124 H124      -83.0597   26.4833  -76.6667 H         1 UNK         0.0793 
    125 H125      -83.2461   24.7656  -76.3085 H         1 UNK         0.0793 
    126 H126      -82.3648   25.2812  -77.7399 H         1 UNK         0.0793 
    127 H127      -82.5119   26.0411  -74.2583 H         1 UNK         0.2896 
@<TRIPOS>BOND
     1    1    2 1    
     2    1   67 1    
     3    1   68 1    
     4    1   69 1    
     5    2    3 2    
     6    2    4 am   BACKBONE|DICT|INTERRES
     7    4    5 1    
     8    4   70 1    
     9    5    6 1    
    10    5   65 1    
    11    5   71 1    
    12    6    7 1    
    13    6   72 1    
    14    6   73 1    
    15    7    8 1    
    16    8    9 1    
    17    8   74 1    
    18    8   75 1    
    19    9   10 ar   
    20    9   14 ar   
    21   10   11 ar   
    22   10   76 1    
    23   11   12 ar   
    24   11   48 1    
    25   12   13 ar   
    26   12   77 1    
    27   13   14 ar   
    28   13   15 1    
    29   14   78 1    
    30   15   16 1    
    31   15   79 1    
    32   15   80 1    
    33   16   17 1    
    34   17   18 1    
    35   17   81 1    
    36   17   82 1    
    37   18   19 1    
    38   18   22 1    
    39   18   83 1    
    40   19   20 am   BACKBONE|DICT|INTERRES
    41   19   21 2    
    42   20   84 1    
    43   20   85 1    
    44   22   23 am   BACKBONE|DICT|INTERRES
    45   22   86 1    
    46   23   24 2    
    47   23   25 1    
    48   25   26 1    
    49   25   27 1    
    50   25   87 1    
    51   26   88 1    
    52   26   89 1    
    53   26   90 1    
    54   27   28 am   BACKBONE|DICT|INTERRES
    55   27   91 1    
    56   28   29 2    
    57   28   30 1    
    58   30   31 1    
    59   30   32 1    
    60   30   92 1    
    61   31   93 1    
    62   31   94 1    
    63   31   95 1    
    64   32   33 am   BACKBONE|DICT|INTERRES
    65   32   96 1    
    66   33   34 2    
    67   33   35 1    
    68   35   36 1    
    69   35   37 1    
    70   35   97 1    
    71   36   98 1    
    72   36   99 1    
    73   36  100 1    
    74   37   38 am   BACKBONE|DICT|INTERRES
    75   37  101 1    
    76   38   39 2    
    77   38   40 1    
    78   40   41 1    
    79   40   42 1    
    80   40  102 1    
    81   41  103 1    
    82   41  104 1    
    83   41  105 1    
    84   42   43 am   BACKBONE|DICT|INTERRES
    85   42  106 1    
    86   43   44 2    
    87   43   45 1    
    88   45   46 1    
    89   45   49 1    
    90   45  107 1    
    91   46   47 1    
    92   46  108 1    
    93   46  109 1    
    94   47   48 1    
    95   48  110 1    
    96   48  111 1    
    97   49   50 am   BACKBONE|DICT|INTERRES
    98   49  112 1    
    99   50   51 2    
   100   50   52 1    
   101   52   53 1    
   102   52   54 1    
   103   52  113 1    
   104   53  114 1    
   105   53  115 1    
   106   53  116 1    
   107   54   55 am   BACKBONE|DICT|INTERRES
   108   54  117 1    
   109   55   56 2    
   110   55   57 1    
   111   57   58 1    
   112   57   59 1    
   113   57  118 1    
   114   58  119 1    
   115   58  120 1    
   116   58  121 1    
   117   59   60 am   BACKBONE|DICT|INTERRES
   118   59  122 1    
   119   60   61 2    
   120   60   62 1    
   121   62   63 1    
   122   62   64 1    
   123   62  123 1    
   124   63  124 1    
   125   63  125 1    
   126   63  126 1    
   127   64   65 am   BACKBONE|DICT|INTERRES
   128   64  127 1    
   129   65   66 2    
@<TRIPOS>SUBSTRUCTURE
     1 UNK         1 GROUP             0       ****    0 ROOT    
