@<TRIPOS>MOLECULE
3R135
127   129    1
SMALL
USER_CHARGES


@<TRIPOS>ATOM
      1 CA        -75.5980   22.2535  -74.6014 C.3       0 UNK        -0.1998 
      2 C         -76.9714   22.2689  -73.9502 C.2       0 UNK         0.4909 
      3 O         -77.6172   21.2244  -73.8580 O.2       0 UNK        -0.5240 
      4 N         -77.4098   23.4437  -73.4796 N.am      1 UNK        -0.4739 
      5 CA        -78.7002   23.6549  -72.8135 C.3       1 UNK         0.0864 
      6 C6        -78.7914   25.0565  -72.1657 C.3       11 UNK        -0.0881 
      7 S7        -77.4777   25.3303  -70.9311 S.3       11 UNK        -0.2682 
      8 C8        -78.0583   26.8564  -70.1303 C.3       11 UNK         0.0289 
      9 C9        -77.7887   28.0830  -70.9890 C.ar      11 UNK        -0.0687 
     10 C10       -78.7604   28.5555  -71.8763 C.ar      11 UNK        -0.0823 
     11 C11       -78.5194   29.6927  -72.6536 C.ar      11 UNK        -0.0830 
     12 C12       -77.3038   30.3719  -72.5195 C.ar      11 UNK        -0.1021 
     13 C13       -76.3281   29.9150  -71.6282 C.ar      11 UNK        -0.0753 
     14 C14       -76.5730   28.7637  -70.8741 C.ar      11 UNK        -0.0933 
     15 C15       -75.0287   30.6858  -71.4381 C.3       11 UNK         0.0166 
     16 S16       -73.6797   30.0317  -72.4674 S.3       11 UNK        -0.2615 
     17 C17       -73.9870   30.8897  -74.0482 C.3       11 UNK        -0.0865 
     18 CA        -73.2836   30.2184  -75.2633 C.3       10 UNK         0.0862 
     19 C         -73.6669   30.8807  -76.6220 C.2       10 UNK         0.5551 
     20 N         -72.8130   30.8308  -77.6382 N.am      10 UNK        -0.7319 
     21 O         -74.7518   31.4390  -76.7684 O.2       10 UNK        -0.5018 
     22 N         -71.8352   30.0147  -75.0794 N.am      10 UNK        -0.4509 
     23 C         -70.9113   30.9652  -74.8748 C.2       10 UNK         0.4899 
     24 O         -71.1746   32.1666  -74.8038 O.2       10 UNK        -0.4839 
     25 CA        -69.4361   30.5161  -74.7728 C.3       9 UNK         0.0222 
     26 CB        -68.6291   31.3596  -73.7618 C.3       9 UNK        -0.1966 
     27 N         -69.2593   29.0756  -74.5378 N.am      9 UNK        -0.4218 
     28 C         -69.5818   28.3780  -73.4385 C.2       9 UNK         0.5020 
     29 O         -70.0050   28.8697  -72.3909 O.2       9 UNK        -0.5274 
     30 CA        -69.4455   26.8486  -73.5527 C.3       8 UNK         0.0270 
     31 CB        -68.5646   26.2813  -72.4262 C.3       8 UNK        -0.1976 
     32 N         -70.7548   26.1891  -73.5277 N.am      8 UNK        -0.4313 
     33 C         -71.7415   26.4025  -74.4089 C.2       8 UNK         0.5041 
     34 O         -71.6371   27.1617  -75.3774 O.2       8 UNK        -0.5577 
     35 CA        -73.0586   25.6498  -74.1540 C.3       7 UNK         0.0284 
     36 CB        -73.7682   26.1664  -72.8899 C.3       7 UNK        -0.1958 
     37 N         -73.9718   25.8086  -75.2829 N.am      7 UNK        -0.4454 
     38 C         -74.0090   25.0418  -76.3765 C.2       7 UNK         0.5089 
     39 O         -73.3063   24.0412  -76.5286 O.2       7 UNK        -0.5125 
     40 CA        -75.0315   25.4455  -77.4625 C.3       6 UNK         0.0408 
     41 CB        -75.2812   24.3208  -78.4844 C.3       6 UNK        -0.1791 
     42 N         -76.3226   25.8672  -76.9041 N.am      6 UNK        -0.4762 
     43 C         -76.5944   27.0642  -76.3622 C.2       6 UNK         0.5007 
     44 O         -75.7483   27.9501  -76.2500 O.2       6 UNK        -0.5032 
     45 CA        -78.0149   27.2792  -75.7972 C.3       5 UNK         0.0783 
     46 C46       -78.4497   28.7717  -75.7892 C.3       11 UNK        -0.0857 
     47 S47       -80.0309   29.0042  -74.9029 S.3       11 UNK        -0.2512 
     48 C48       -79.5838   30.2120  -73.6125 C.3       11 UNK         0.0225 
     49 N         -79.0084   26.3830  -76.4076 N.am      5 UNK        -0.4615 
     50 C         -79.4530   26.4234  -77.6739 C.2       4 UNK         0.5053 
     51 O         -79.0145   27.1779  -78.5418 O.2       4 UNK        -0.5105 
     52 CA        -80.5956   25.4600  -78.0247 C.3       4 UNK         0.0263 
     53 CB        -80.0367   24.0969  -78.4655 C.3       4 UNK        -0.1981 
     54 N         -81.4841   25.2731  -76.8784 N.am      4 UNK        -0.4224 
     55 C         -82.4984   26.0846  -76.5458 C.2       3 UNK         0.4895 
     56 O         -82.8724   27.0222  -77.2520 O.2       3 UNK        -0.5091 
     57 CA        -83.1983   25.8436  -75.1877 C.3       3 UNK         0.0250 
     58 CB        -84.7363   25.8846  -75.3114 C.3       3 UNK        -0.1996 
     59 N         -82.7503   24.6358  -74.4758 N.am      3 UNK        -0.4254 
     60 C         -82.8854   23.3573  -74.8616 C.2       2 UNK         0.5004 
     61 O         -83.5408   23.0061  -75.8435 O.2       2 UNK        -0.5226 
     62 CA        -82.1182   22.2966  -74.0428 C.3       2 UNK         0.0269 
     63 CB        -81.6988   21.0948  -74.9170 C.3       2 UNK        -0.1926 
     64 N         -80.9457   22.7940  -73.2997 N.am      2 UNK        -0.4687 
     65 C         -79.8722   23.4351  -73.7909 C.2       1 UNK         0.5165 
     66 O         -79.7940   23.8802  -74.9404 O.2       1 UNK        -0.5079 
     67 H67       -75.0557   21.3510  -74.3209 H         1 UNK         0.0900 
     68 H68       -74.9997   23.1095  -74.2923 H         1 UNK         0.0900 
     69 H69       -75.6936   22.2703  -75.6864 H         1 UNK         0.0900 
     70 H70       -76.8282   24.2633  -73.5648 H         1 UNK         0.2959 
     71 H71       -78.7767   22.9068  -72.0210 H         1 UNK         0.1079 
     72 H72       -79.7561   25.1824  -71.6699 H         1 UNK         0.0837 
     73 H73       -78.7301   25.8384  -72.9223 H         1 UNK         0.0837 
     74 H74       -79.1214   26.7748  -69.8986 H         1 UNK         0.0685 
     75 H75       -77.5489   26.9615  -69.1712 H         1 UNK         0.0685 
     76 H76       -79.7064   28.0389  -71.9646 H         1 UNK         0.1434 
     77 H77       -77.1224   31.2672  -73.0981 H         1 UNK         0.1329 
     78 H78       -75.8210   28.4059  -70.1839 H         1 UNK         0.1335 
     79 H79       -74.7235   30.6286  -70.3921 H         1 UNK         0.0680 
     80 H80       -75.1746   31.7462  -71.6499 H         1 UNK         0.0680 
     81 H81       -73.6792   31.9316  -73.9490 H         1 UNK         0.1032 
     82 H82       -75.0637   30.9071  -74.2186 H         1 UNK         0.1032 
     83 H83       -73.6858   29.2087  -75.3316 H         1 UNK         0.0461 
     84 H84       -73.0633   31.2561  -78.5167 H         1 UNK         0.3453 
     85 H85       -71.9258   30.3657  -77.5337 H         1 UNK         0.3453 
     86 H86       -71.5394   29.0438  -75.1477 H         1 UNK         0.2984 
     87 H87       -69.0077   30.7026  -75.7585 H         1 UNK         0.0554 
     88 H88       -68.6166   32.4109  -74.0516 H         1 UNK         0.0847 
     89 H89       -67.5920   31.0295  -73.7051 H         1 UNK         0.0847 
     90 H90       -69.0544   31.3084  -72.7592 H         1 UNK         0.0847 
     91 H91       -68.9518   28.5492  -75.3448 H         1 UNK         0.3141 
     92 H92       -68.9705   26.6037  -74.5052 H         1 UNK         0.0743 
     93 H93       -69.0052   26.4510  -71.4427 H         1 UNK         0.0784 
     94 H94       -68.4085   25.2088  -72.5444 H         1 UNK         0.0784 
     95 H95       -67.5808   26.7528  -72.4271 H         1 UNK         0.0784 
     96 H96       -70.9292   25.5735  -72.7466 H         1 UNK         0.3213 
     97 H97       -72.8238   24.5916  -74.0199 H         1 UNK         0.0855 
     98 H98       -73.1270   26.1011  -72.0104 H         1 UNK         0.0814 
     99 H99       -74.6654   25.5859  -72.6745 H         1 UNK         0.0814 
    100 H100      -74.0693   27.2082  -72.9968 H         1 UNK         0.0814 
    101 H101      -74.5125   26.6660  -75.3131 H         1 UNK         0.3105 
    102 H102      -74.5973   26.2899  -78.0021 H         1 UNK         0.0547 
    103 H103      -74.3549   24.0286  -78.9809 H         1 UNK         0.0837 
    104 H104      -75.6932   23.4288  -78.0115 H         1 UNK         0.0837 
    105 H105      -75.9744   24.6389  -79.2633 H         1 UNK         0.0837 
    106 H106      -77.0672   25.1858  -76.9301 H         1 UNK         0.3020 
    107 H107      -77.9341   26.9739  -74.7542 H         1 UNK         0.1245 
    108 H108      -78.5594   29.1527  -76.8053 H         1 UNK         0.0781 
    109 H109      -77.6853   29.3942  -75.3212 H         1 UNK         0.0781 
    110 H110      -80.4791   30.4642  -73.0427 H         1 UNK         0.0836 
    111 H111      -79.2595   31.1359  -74.0942 H         1 UNK         0.0836 
    112 H112      -79.4005   25.6759  -75.7950 H         1 UNK         0.3022 
    113 H113      -81.1602   25.8870  -78.8564 H         1 UNK         0.0747 
    114 H114      -79.3796   24.2062  -79.3294 H         1 UNK         0.0793 
    115 H115      -79.4593   23.6173  -77.6740 H         1 UNK         0.0793 
    116 H116      -80.8385   23.4162  -78.7519 H         1 UNK         0.0793 
    117 H117      -81.2148   24.5493  -76.2211 H         1 UNK         0.3047 
    118 H118      -82.9008   26.6829  -74.5569 H         1 UNK         0.0822 
    119 H119      -85.1107   25.1240  -75.9969 H         1 UNK         0.0807 
    120 H120      -85.0721   26.8510  -75.6896 H         1 UNK         0.0807 
    121 H121      -85.2169   25.7328  -74.3451 H         1 UNK         0.0807 
    122 H122      -82.1910   24.8046  -73.6516 H         1 UNK         0.2946 
    123 H123      -82.8269   21.9323  -73.2970 H         1 UNK         0.1144 
    124 H124      -81.1811   20.3372  -74.3285 H         1 UNK         0.0793 
    125 H125      -81.0346   21.3995  -75.7269 H         1 UNK         0.0793 
    126 H126      -82.5654   20.6112  -75.3697 H         1 UNK         0.0793 
    127 H127      -80.9235   22.5254  -72.3248 H         1 UNK         0.2896 
@<TRIPOS>BOND
     1    1    2 1    
     2    1   67 1    
     3    1   68 1    
     4    1   69 1    
     5    2    3 2    
     6    2    4 am   BACKBONE|DICT|INTERRES
     7    4    5 1    
     8    4   70 1    
     9    5    6 1    
    10    5   65 1    
    11    5   71 1    
    12    6    7 1    
    13    6   72 1    
    14    6   73 1    
    15    7    8 1    
    16    8    9 1    
    17    8   74 1    
    18    8   75 1    
    19    9   10 ar   
    20    9   14 ar   
    21   10   11 ar   
    22   10   76 1    
    23   11   12 ar   
    24   11   48 1    
    25   12   13 ar   
    26   12   77 1    
    27   13   14 ar   
    28   13   15 1    
    29   14   78 1    
    30   15   16 1    
    31   15   79 1    
    32   15   80 1    
    33   16   17 1    
    34   17   18 1    
    35   17   81 1    
    36   17   82 1    
    37   18   19 1    
    38   18   22 1    
    39   18   83 1    
    40   19   20 am   BACKBONE|DICT|INTERRES
    41   19   21 2    
    42   20   84 1    
    43   20   85 1    
    44   22   23 am   BACKBONE|DICT|INTERRES
    45   22   86 1    
    46   23   24 2    
    47   23   25 1    
    48   25   26 1    
    49   25   27 1    
    50   25   87 1    
    51   26   88 1    
    52   26   89 1    
    53   26   90 1    
    54   27   28 am   BACKBONE|DICT|INTERRES
    55   27   91 1    
    56   28   29 2    
    57   28   30 1    
    58   30   31 1    
    59   30   32 1    
    60   30   92 1    
    61   31   93 1    
    62   31   94 1    
    63   31   95 1    
    64   32   33 am   BACKBONE|DICT|INTERRES
    65   32   96 1    
    66   33   34 2    
    67   33   35 1    
    68   35   36 1    
    69   35   37 1    
    70   35   97 1    
    71   36   98 1    
    72   36   99 1    
    73   36  100 1    
    74   37   38 am   BACKBONE|DICT|INTERRES
    75   37  101 1    
    76   38   39 2    
    77   38   40 1    
    78   40   41 1    
    79   40   42 1    
    80   40  102 1    
    81   41  103 1    
    82   41  104 1    
    83   41  105 1    
    84   42   43 am   BACKBONE|DICT|INTERRES
    85   42  106 1    
    86   43   44 2    
    87   43   45 1    
    88   45   46 1    
    89   45   49 1    
    90   45  107 1    
    91   46   47 1    
    92   46  108 1    
    93   46  109 1    
    94   47   48 1    
    95   48  110 1    
    96   48  111 1    
    97   49   50 am   BACKBONE|DICT|INTERRES
    98   49  112 1    
    99   50   51 2    
   100   50   52 1    
   101   52   53 1    
   102   52   54 1    
   103   52  113 1    
   104   53  114 1    
   105   53  115 1    
   106   53  116 1    
   107   54   55 am   BACKBONE|DICT|INTERRES
   108   54  117 1    
   109   55   56 2    
   110   55   57 1    
   111   57   58 1    
   112   57   59 1    
   113   57  118 1    
   114   58  119 1    
   115   58  120 1    
   116   58  121 1    
   117   59   60 am   BACKBONE|DICT|INTERRES
   118   59  122 1    
   119   60   61 2    
   120   60   62 1    
   121   62   63 1    
   122   62   64 1    
   123   62  123 1    
   124   63  124 1    
   125   63  125 1    
   126   63  126 1    
   127   64   65 am   BACKBONE|DICT|INTERRES
   128   64  127 1    
   129   65   66 2    
@<TRIPOS>SUBSTRUCTURE
     1 UNK         1 GROUP             0       ****    0 ROOT    
