@<TRIPOS>MOLECULE
3R135
127   129    1
SMALL
USER_CHARGES


@<TRIPOS>ATOM
      1 CA        -84.0984   27.8498  -71.5053 C.3       0 UNK        -0.1998 
      2 C         -83.0321   27.6811  -72.5767 C.2       0 UNK         0.4909 
      3 O         -81.9600   27.1581  -72.2782 O.2       0 UNK        -0.5240 
      4 N         -83.3387   28.1113  -73.8100 N.am      1 UNK        -0.4739 
      5 CA        -82.5427   28.1322  -75.0538 C.3       1 UNK         0.0864 
      6 C6        -81.4729   29.2595  -75.1115 C.3       11 UNK        -0.0881 
      7 S7        -79.9183   28.9557  -74.2080 S.3       11 UNK        -0.2682 
      8 C8        -80.1276   30.0217  -72.7462 C.3       11 UNK         0.0289 
      9 C9        -78.9819   29.8012  -71.7740 C.ar      11 UNK        -0.0687 
     10 C10       -78.8925   28.5966  -71.0733 C.ar      11 UNK        -0.0823 
     11 C11       -77.7779   28.3203  -70.2775 C.ar      11 UNK        -0.0830 
     12 C12       -76.7816   29.2892  -70.1234 C.ar      11 UNK        -0.1021 
     13 C13       -76.8677   30.5023  -70.8144 C.ar      11 UNK        -0.0753 
     14 C14       -77.9733   30.7570  -71.6317 C.ar      11 UNK        -0.0933 
     15 C15       -75.7347   31.5124  -70.7434 C.3       11 UNK         0.0166 
     16 S16       -74.6274   31.3464  -72.1811 S.3       11 UNK        -0.2615 
     17 C17       -73.7393   29.8029  -71.7781 C.3       11 UNK        -0.0865 
     18 CA        -72.3949   29.6974  -72.5474 C.3       10 UNK         0.0862 
     19 C         -71.4234   28.6522  -71.9199 C.2       10 UNK         0.5551 
     20 N         -70.6662   27.8880  -72.6978 N.am      10 UNK        -0.7319 
     21 O         -71.3352   28.5415  -70.6996 O.2       10 UNK        -0.5018 
     22 N         -72.6197   29.4898  -73.9880 N.am      10 UNK        -0.4509 
     23 C         -71.9146   30.0603  -74.9708 C.2       10 UNK         0.4899 
     24 O         -71.0447   30.9145  -74.7911 O.2       10 UNK        -0.4839 
     25 CA        -72.2183   29.5439  -76.3912 C.3       9 UNK         0.0222 
     26 CB        -71.3094   30.1668  -77.4715 C.3       9 UNK        -0.1966 
     27 N         -72.1817   28.0775  -76.4644 N.am      9 UNK        -0.4218 
     28 C         -71.1589   27.2663  -76.1508 C.2       9 UNK         0.5020 
     29 O         -70.0585   27.6682  -75.7708 O.2       9 UNK        -0.5274 
     30 CA        -71.4009   25.7463  -76.2192 C.3       8 UNK         0.0270 
     31 CB        -71.3914   25.1422  -74.8048 C.3       8 UNK        -0.1976 
     32 N         -72.6544   25.3756  -76.8797 N.am      8 UNK        -0.4313 
     33 C         -72.8626   25.4016  -78.2030 C.2       8 UNK         0.5041 
     34 O         -71.9992   25.7017  -79.0279 O.2       8 UNK        -0.5577 
     35 CA        -74.2852   25.0698  -78.6812 C.3       7 UNK         0.0284 
     36 CB        -74.5164   23.5504  -78.7186 C.3       7 UNK        -0.1958 
     37 N         -75.3066   25.7081  -77.8474 N.am      7 UNK        -0.4454 
     38 C         -75.5802   27.0208  -77.8541 C.2       7 UNK         0.5089 
     39 O         -75.0260   27.8339  -78.5928 O.2       7 UNK        -0.5125 
     40 CA        -76.6323   27.5145  -76.8471 C.3       6 UNK         0.0408 
     41 CB        -78.0364   27.4656  -77.4698 C.3       6 UNK        -0.1791 
     42 N         -76.6163   26.7532  -75.5949 N.am      6 UNK        -0.4762 
     43 C         -75.6217   26.8191  -74.6949 C.2       6 UNK         0.5007 
     44 O         -74.6302   27.5393  -74.8204 O.2       6 UNK        -0.5032 
     45 CA        -75.7317   25.9116  -73.4543 C.3       5 UNK         0.0783 
     46 C46       -76.6594   26.5697  -72.4124 C.3       11 UNK        -0.0857 
     47 S47       -76.4212   25.9203  -70.7203 S.3       11 UNK        -0.2512 
     48 C48       -77.5872   26.9188  -69.7156 C.3       11 UNK         0.0225 
     49 N         -76.1614   24.5530  -73.7972 N.am      5 UNK        -0.4615 
     50 C         -75.4879   23.7211  -74.6041 C.2       4 UNK         0.5053 
     51 O         -74.4076   23.9942  -75.1236 O.2       4 UNK        -0.5105 
     52 CA        -76.1943   22.4218  -74.9897 C.3       4 UNK         0.0263 
     53 CB        -76.6208   21.5911  -73.7660 C.3       4 UNK        -0.1981 
     54 N         -77.3591   22.8096  -75.7717 N.am      4 UNK        -0.4224 
     55 C         -77.7164   22.3460  -76.9696 C.2       3 UNK         0.4895 
     56 O         -77.1656   21.3967  -77.5287 O.2       3 UNK        -0.5091 
     57 CA        -78.8779   23.0953  -77.6613 C.3       3 UNK         0.0250 
     58 CB        -79.4285   22.3313  -78.8799 C.3       3 UNK        -0.1996 
     59 N         -79.9934   23.4247  -76.7627 N.am      3 UNK        -0.4254 
     60 C         -79.9986   24.3583  -75.8001 C.2       2 UNK         0.5004 
     61 O         -79.0159   25.0468  -75.5052 O.2       2 UNK        -0.5226 
     62 CA        -81.2835   24.4620  -74.9659 C.3       2 UNK         0.0269 
     63 CB        -81.1048   23.7178  -73.6327 C.3       2 UNK        -0.1926 
     64 N         -81.6724   25.8429  -74.6841 N.am      2 UNK        -0.4687 
     65 C         -82.0463   26.7617  -75.5812 C.2       1 UNK         0.5165 
     66 O         -82.0719   26.5461  -76.7944 O.2       1 UNK        -0.5079 
     67 H67       -84.3792   26.8778  -71.1005 H         1 UNK         0.0900 
     68 H68       -83.7136   28.4603  -70.6889 H         1 UNK         0.0900 
     69 H69       -84.9973   28.3292  -71.8924 H         1 UNK         0.0900 
     70 H70       -84.2682   28.4883  -73.9354 H         1 UNK         0.2959 
     71 H71       -83.2897   28.4239  -75.7946 H         1 UNK         0.1079 
     72 H72       -81.1991   29.4360  -76.1533 H         1 UNK         0.0837 
     73 H73       -81.9096   30.1996  -74.7712 H         1 UNK         0.0837 
     74 H74       -81.0728   29.8012  -72.2508 H         1 UNK         0.0685 
     75 H75       -80.1751   31.0648  -73.0626 H         1 UNK         0.0685 
     76 H76       -79.6509   27.8398  -71.2233 H         1 UNK         0.1434 
     77 H77       -75.9062   29.0675  -69.5284 H         1 UNK         0.1329 
     78 H78       -78.0226   31.6805  -72.1924 H         1 UNK         0.1335 
     79 H79       -76.1461   32.5229  -70.7293 H         1 UNK         0.0680 
     80 H80       -75.1678   31.4005  -69.8179 H         1 UNK         0.0680 
     81 H81       -74.3794   28.9468  -71.9967 H         1 UNK         0.1032 
     82 H82       -73.5717   29.7915  -70.6998 H         1 UNK         0.1032 
     83 H83       -71.8802   30.6500  -72.4095 H         1 UNK         0.0461 
     84 H84       -70.0372   27.2290  -72.2681 H         1 UNK         0.3453 
     85 H85       -70.6633   28.0061  -73.7018 H         1 UNK         0.3453 
     86 H86       -73.3100   28.7855  -74.2371 H         1 UNK         0.2984 
     87 H87       -73.2459   29.8359  -76.6134 H         1 UNK         0.0554 
     88 H88       -71.4072   31.2529  -77.4849 H         1 UNK         0.0847 
     89 H89       -71.5724   29.8055  -78.4657 H         1 UNK         0.0847 
     90 H90       -70.2573   29.9373  -77.2989 H         1 UNK         0.0847 
     91 H91       -73.0611   27.6357  -76.6961 H         1 UNK         0.3141 
     92 H92       -70.5732   25.3103  -76.7824 H         1 UNK         0.0743 
     93 H93       -70.4433   25.3350  -74.3012 H         1 UNK         0.0784 
     94 H94       -72.1841   25.5615  -74.1834 H         1 UNK         0.0784 
     95 H95       -71.5261   24.0607  -74.8337 H         1 UNK         0.0784 
     96 H96       -73.3977   25.0357  -76.2713 H         1 UNK         0.3213 
     97 H97       -74.3896   25.4515  -79.6995 H         1 UNK         0.0855 
     98 H98       -74.4487   23.1004  -77.7278 H         1 UNK         0.0814 
     99 H99       -73.7727   23.0602  -79.3484 H         1 UNK         0.0814 
    100 H100      -75.4961   23.3079  -79.1305 H         1 UNK         0.0814 
    101 H101      -75.7829   25.1277  -77.1741 H         1 UNK         0.3105 
    102 H102      -76.4053   28.5562  -76.6097 H         1 UNK         0.0547 
    103 H103      -78.7937   27.8280  -76.7752 H         1 UNK         0.0837 
    104 H104      -78.3156   26.4546  -77.7655 H         1 UNK         0.0837 
    105 H105      -78.0887   28.0912  -78.3616 H         1 UNK         0.0837 
    106 H106      -77.4241   26.1626  -75.4110 H         1 UNK         0.3020 
    107 H107      -74.7265   25.8420  -73.0315 H         1 UNK         0.1245 
    108 H108      -77.7078   26.4647  -72.7002 H         1 UNK         0.0781 
    109 H109      -76.4570   27.6415  -72.3826 H         1 UNK         0.0781 
    110 H110      -77.2198   26.9766  -68.6901 H         1 UNK         0.0836 
    111 H111      -78.5444   26.3970  -69.6670 H         1 UNK         0.0836 
    112 H112      -77.0433   24.2579  -73.4057 H         1 UNK         0.3022 
    113 H113      -75.5042   21.8306  -75.5958 H         1 UNK         0.0747 
    114 H114      -77.0559   20.6406  -74.0753 H         1 UNK         0.0793 
    115 H115      -75.7634   21.3630  -73.1315 H         1 UNK         0.0793 
    116 H116      -77.3596   22.1051  -73.1505 H         1 UNK         0.0793 
    117 H117      -77.8704   23.6264  -75.4435 H         1 UNK         0.3047 
    118 H118      -78.4587   24.0340  -78.0285 H         1 UNK         0.0822 
    119 H119      -80.2072   22.9007  -79.3877 H         1 UNK         0.0807 
    120 H120      -79.8485   21.3662  -78.5939 H         1 UNK         0.0807 
    121 H121      -78.6432   22.1414  -79.6131 H         1 UNK         0.0807 
    122 H122      -80.8287   22.8714  -76.8908 H         1 UNK         0.2946 
    123 H123      -82.1026   23.9983  -75.5197 H         1 UNK         0.1144 
    124 H124      -80.3219   24.1710  -73.0226 H         1 UNK         0.0793 
    125 H125      -80.8301   22.6748  -73.7966 H         1 UNK         0.0793 
    126 H126      -82.0260   23.7223  -73.0496 H         1 UNK         0.0793 
    127 H127      -81.6482   26.1463  -73.7118 H         1 UNK         0.2896 
@<TRIPOS>BOND
     1    1    2 1    
     2    1   67 1    
     3    1   68 1    
     4    1   69 1    
     5    2    3 2    
     6    2    4 am   BACKBONE|DICT|INTERRES
     7    4    5 1    
     8    4   70 1    
     9    5    6 1    
    10    5   65 1    
    11    5   71 1    
    12    6    7 1    
    13    6   72 1    
    14    6   73 1    
    15    7    8 1    
    16    8    9 1    
    17    8   74 1    
    18    8   75 1    
    19    9   10 ar   
    20    9   14 ar   
    21   10   11 ar   
    22   10   76 1    
    23   11   12 ar   
    24   11   48 1    
    25   12   13 ar   
    26   12   77 1    
    27   13   14 ar   
    28   13   15 1    
    29   14   78 1    
    30   15   16 1    
    31   15   79 1    
    32   15   80 1    
    33   16   17 1    
    34   17   18 1    
    35   17   81 1    
    36   17   82 1    
    37   18   19 1    
    38   18   22 1    
    39   18   83 1    
    40   19   20 am   BACKBONE|DICT|INTERRES
    41   19   21 2    
    42   20   84 1    
    43   20   85 1    
    44   22   23 am   BACKBONE|DICT|INTERRES
    45   22   86 1    
    46   23   24 2    
    47   23   25 1    
    48   25   26 1    
    49   25   27 1    
    50   25   87 1    
    51   26   88 1    
    52   26   89 1    
    53   26   90 1    
    54   27   28 am   BACKBONE|DICT|INTERRES
    55   27   91 1    
    56   28   29 2    
    57   28   30 1    
    58   30   31 1    
    59   30   32 1    
    60   30   92 1    
    61   31   93 1    
    62   31   94 1    
    63   31   95 1    
    64   32   33 am   BACKBONE|DICT|INTERRES
    65   32   96 1    
    66   33   34 2    
    67   33   35 1    
    68   35   36 1    
    69   35   37 1    
    70   35   97 1    
    71   36   98 1    
    72   36   99 1    
    73   36  100 1    
    74   37   38 am   BACKBONE|DICT|INTERRES
    75   37  101 1    
    76   38   39 2    
    77   38   40 1    
    78   40   41 1    
    79   40   42 1    
    80   40  102 1    
    81   41  103 1    
    82   41  104 1    
    83   41  105 1    
    84   42   43 am   BACKBONE|DICT|INTERRES
    85   42  106 1    
    86   43   44 2    
    87   43   45 1    
    88   45   46 1    
    89   45   49 1    
    90   45  107 1    
    91   46   47 1    
    92   46  108 1    
    93   46  109 1    
    94   47   48 1    
    95   48  110 1    
    96   48  111 1    
    97   49   50 am   BACKBONE|DICT|INTERRES
    98   49  112 1    
    99   50   51 2    
   100   50   52 1    
   101   52   53 1    
   102   52   54 1    
   103   52  113 1    
   104   53  114 1    
   105   53  115 1    
   106   53  116 1    
   107   54   55 am   BACKBONE|DICT|INTERRES
   108   54  117 1    
   109   55   56 2    
   110   55   57 1    
   111   57   58 1    
   112   57   59 1    
   113   57  118 1    
   114   58  119 1    
   115   58  120 1    
   116   58  121 1    
   117   59   60 am   BACKBONE|DICT|INTERRES
   118   59  122 1    
   119   60   61 2    
   120   60   62 1    
   121   62   63 1    
   122   62   64 1    
   123   62  123 1    
   124   63  124 1    
   125   63  125 1    
   126   63  126 1    
   127   64   65 am   BACKBONE|DICT|INTERRES
   128   64  127 1    
   129   65   66 2    
@<TRIPOS>SUBSTRUCTURE
     1 UNK         1 GROUP             0       ****    0 ROOT    
