@<TRIPOS>MOLECULE
3R135
127   129    1
SMALL
USER_CHARGES


@<TRIPOS>ATOM
      1 CA        -84.7826   28.9164  -74.9417 C.3       0 UNK        -0.1998 
      2 C         -83.3077   28.5452  -74.9490 C.2       0 UNK         0.4909 
      3 O         -82.5989   28.8614  -75.9060 O.2       0 UNK        -0.5240 
      4 N         -82.8351   27.8742  -73.8911 N.am      1 UNK        -0.4739 
      5 CA        -81.4497   27.4213  -73.7313 C.3       1 UNK         0.0864 
      6 C6        -81.0637   27.2416  -72.2393 C.3       11 UNK        -0.0881 
      7 S7        -81.2589   28.7668  -71.2556 S.3       11 UNK        -0.2682 
      8 C8        -79.6651   28.8432  -70.3592 C.3       11 UNK         0.0289 
      9 C9        -78.4439   29.2876  -71.1705 C.ar      11 UNK        -0.0687 
     10 C10       -78.5169   29.6734  -72.5154 C.ar      11 UNK        -0.0823 
     11 C11       -77.3747   30.0796  -73.2096 C.ar      11 UNK        -0.0830 
     12 C12       -76.1464   30.1233  -72.5452 C.ar      11 UNK        -0.1021 
     13 C13       -76.0535   29.7526  -71.2004 C.ar      11 UNK        -0.0753 
     14 C14       -77.2036   29.3331  -70.5244 C.ar      11 UNK        -0.0933 
     15 C15       -74.7195   29.8513  -70.4687 C.3       11 UNK         0.0166 
     16 S16       -74.1167   28.2549  -69.8246 S.3       11 UNK        -0.2615 
     17 C17       -73.9167   27.2711  -71.3453 C.3       11 UNK        -0.0865 
     18 CA        -72.5678   27.5406  -72.0768 C.3       10 UNK         0.0862 
     19 C         -71.7326   26.2465  -72.2734 C.2       10 UNK         0.5551 
     20 N         -71.2416   25.6662  -71.1869 N.am      10 UNK        -0.7319 
     21 O         -71.5282   25.7569  -73.3829 O.2       10 UNK        -0.5018 
     22 N         -72.8129   28.2087  -73.3578 N.am      10 UNK        -0.4509 
     23 C         -72.5004   29.4695  -73.6665 C.2       10 UNK         0.4899 
     24 O         -71.9294   30.2535  -72.9069 O.2       10 UNK        -0.4839 
     25 CA        -72.9225   29.9163  -75.0747 C.3       9 UNK         0.0222 
     26 CB        -72.5994   31.3943  -75.3822 C.3       9 UNK        -0.1966 
     27 N         -72.4004   29.0126  -76.1036 N.am      9 UNK        -0.4218 
     28 C         -71.1202   28.8267  -76.4599 C.2       9 UNK         0.5020 
     29 O         -70.1746   29.4575  -75.9849 O.2       9 UNK        -0.5274 
     30 CA        -70.8249   27.7460  -77.5198 C.3       8 UNK         0.0270 
     31 CB        -69.9587   26.6255  -76.9183 C.3       8 UNK        -0.1976 
     32 N         -72.0193   27.1372  -78.1097 N.am      8 UNK        -0.4313 
     33 C         -72.8620   27.7015  -78.9814 C.2       8 UNK         0.5041 
     34 O         -72.7117   28.8379  -79.4299 O.2       8 UNK        -0.5577 
     35 CA        -74.0995   26.8830  -79.4064 C.3       7 UNK         0.0284 
     36 CB        -73.8245   26.1128  -80.7126 C.3       7 UNK        -0.1958 
     37 N         -74.6541   25.9947  -78.3679 N.am      7 UNK        -0.4454 
     38 C         -74.0985   24.9201  -77.7862 C.2       7 UNK         0.5089 
     39 O         -72.9750   24.5009  -78.0678 O.2       7 UNK        -0.5125 
     40 CA        -74.9168   24.2163  -76.6867 C.3       6 UNK         0.0408 
     41 CB        -74.0168   23.4966  -75.6596 C.3       6 UNK        -0.1791 
     42 N         -75.8764   25.0896  -76.0008 N.am      6 UNK        -0.4762 
     43 C         -75.6115   26.1705  -75.2476 C.2       6 UNK         0.5007 
     44 O         -74.4905   26.6640  -75.1115 O.2       6 UNK        -0.5032 
     45 CA        -76.8156   26.7806  -74.5008 C.3       5 UNK         0.0783 
     46 C46       -77.6334   27.7393  -75.4024 C.3       11 UNK        -0.0857 
     47 S47       -76.7263   29.2726  -75.7979 S.3       11 UNK        -0.2512 
     48 C48       -77.4795   30.4914  -74.6723 C.3       11 UNK         0.0225 
     49 N         -77.6456   25.7054  -73.9443 N.am      5 UNK        -0.4615 
     50 C         -77.3443   25.0300  -72.8240 C.2       4 UNK         0.5053 
     51 O         -76.4461   25.3631  -72.0541 O.2       4 UNK        -0.5105 
     52 CA        -78.1433   23.7520  -72.5083 C.3       4 UNK         0.0263 
     53 CB        -79.1481   23.9804  -71.3676 C.3       4 UNK        -0.1981 
     54 N         -78.8356   23.2127  -73.6817 N.am      4 UNK        -0.4224 
     55 C         -78.2602   22.3932  -74.5753 C.2       3 UNK         0.4895 
     56 O         -77.1228   21.9399  -74.4505 O.2       3 UNK        -0.5091 
     57 CA        -79.0665   22.0223  -75.8351 C.3       3 UNK         0.0250 
     58 CB        -79.7531   20.6597  -75.6498 C.3       3 UNK        -0.1996 
     59 N         -80.0688   23.0167  -76.2293 N.am      3 UNK        -0.4254 
     60 C         -79.8071   24.2849  -76.5731 C.2       2 UNK         0.5004 
     61 O         -78.6708   24.7600  -76.5961 O.2       2 UNK        -0.5226 
     62 CA        -81.0073   25.2024  -76.8797 C.3       2 UNK         0.0269 
     63 CB        -82.3480   24.4515  -77.0463 C.3       2 UNK        -0.1926 
     64 N         -81.1562   26.2694  -75.8803 N.am      2 UNK        -0.4687 
     65 C         -81.2216   26.1311  -74.5473 C.2       1 UNK         0.5165 
     66 O         -81.1339   25.0456  -73.9696 O.2       1 UNK        -0.5079 
     67 H67       -84.8971   29.9976  -75.0140 H         1 UNK         0.0900 
     68 H68       -85.2825   28.5824  -74.0327 H         1 UNK         0.0900 
     69 H69       -85.2876   28.4620  -75.7937 H         1 UNK         0.0900 
     70 H70       -83.4602   27.6330  -73.1349 H         1 UNK         0.2959 
     71 H71       -80.7921   28.1832  -74.1514 H         1 UNK         0.1079 
     72 H72       -81.6686   26.4622  -71.7719 H         1 UNK         0.0837 
     73 H73       -80.0257   26.9123  -72.1668 H         1 UNK         0.0837 
     74 H74       -79.4657   27.8665  -69.9154 H         1 UNK         0.0685 
     75 H75       -79.7887   29.5372  -69.5267 H         1 UNK         0.0685 
     76 H76       -79.4628   29.6751  -73.0334 H         1 UNK         0.1434 
     77 H77       -75.2663   30.4576  -73.0755 H         1 UNK         0.1329 
     78 H78       -77.1312   29.0511  -69.4826 H         1 UNK         0.1335 
     79 H79       -73.9534   30.2832  -71.1126 H         1 UNK         0.0680 
     80 H80       -74.8319   30.5414  -69.6316 H         1 UNK         0.0680 
     81 H81       -74.0229   26.2236  -71.0559 H         1 UNK         0.1032 
     82 H82       -74.7690   27.4539  -71.9992 H         1 UNK         0.1032 
     83 H83       -71.9409   28.1884  -71.4611 H         1 UNK         0.0461 
     84 H84       -70.6972   24.8236  -71.2850 H         1 UNK         0.3453 
     85 H85       -71.4034   26.0562  -70.2712 H         1 UNK         0.3453 
     86 H86       -73.2458   27.6195  -74.0664 H         1 UNK         0.2984 
     87 H87       -74.0057   29.8141  -75.1105 H         1 UNK         0.0554 
     88 H88       -73.1049   32.0547  -74.6767 H         1 UNK         0.0847 
     89 H89       -72.9319   31.6726  -76.3821 H         1 UNK         0.0847 
     90 H90       -71.5322   31.6053  -75.3115 H         1 UNK         0.0847 
     91 H91       -73.0843   28.4020  -76.5288 H         1 UNK         0.3141 
     92 H92       -70.2599   28.2268  -78.3210 H         1 UNK         0.0743 
     93 H93       -69.0280   27.0227  -76.5107 H         1 UNK         0.0784 
     94 H94       -70.4763   26.1108  -76.1070 H         1 UNK         0.0784 
     95 H95       -69.6901   25.8829  -77.6700 H         1 UNK         0.0784 
     96 H96       -72.2130   26.1701  -77.8579 H         1 UNK         0.3213 
     97 H97       -74.8860   27.6100  -79.6168 H         1 UNK         0.0855 
     98 H98       -73.0299   25.3755  -80.5940 H         1 UNK         0.0814 
     99 H99       -73.5156   26.7938  -81.5068 H         1 UNK         0.0814 
    100 H100      -74.7162   25.5923  -81.0617 H         1 UNK         0.0814 
    101 H101      -75.5679   26.2584  -78.0256 H         1 UNK         0.3105 
    102 H102      -75.5131   23.4560  -77.1929 H         1 UNK         0.0547 
    103 H103      -73.4103   22.7274  -76.1389 H         1 UNK         0.0837 
    104 H104      -73.3328   24.1881  -75.1656 H         1 UNK         0.0837 
    105 H105      -74.6090   23.0045  -74.8884 H         1 UNK         0.0837 
    106 H106      -76.8540   24.8287  -76.1141 H         1 UNK         0.3020 
    107 H107      -76.4203   27.3648  -73.6674 H         1 UNK         0.1245 
    108 H108      -78.5685   28.0060  -74.9127 H         1 UNK         0.0781 
    109 H109      -77.9189   27.2578  -76.3387 H         1 UNK         0.0781 
    110 H110      -76.9822   31.4524  -74.8116 H         1 UNK         0.0836 
    111 H111      -78.5205   30.6453  -74.9612 H         1 UNK         0.0836 
    112 H112      -78.3542   25.3280  -74.5596 H         1 UNK         0.3022 
    113 H113      -77.4199   23.0144  -72.1533 H         1 UNK         0.0747 
    114 H114      -78.6630   24.4308  -70.5004 H         1 UNK         0.0793 
    115 H115      -79.5864   23.0382  -71.0387 H         1 UNK         0.0793 
    116 H116      -79.9637   24.6360  -71.6632 H         1 UNK         0.0793 
    117 H117      -79.7708   23.5687  -73.8592 H         1 UNK         0.3047 
    118 H118      -78.3527   21.9364  -76.6572 H         1 UNK         0.0822 
    119 H119      -79.0274   19.8896  -75.3836 H         1 UNK         0.0807 
    120 H120      -80.2451   20.3339  -76.5666 H         1 UNK         0.0807 
    121 H121      -80.5020   20.6893  -74.8572 H         1 UNK         0.0807 
    122 H122      -81.0342   22.7217  -76.2020 H         1 UNK         0.2946 
    123 H123      -80.7769   25.6877  -77.8297 H         1 UNK         0.1144 
    124 H124      -82.2788   23.6794  -77.8140 H         1 UNK         0.0793 
    125 H125      -83.1378   25.1354  -77.3578 H         1 UNK         0.0793 
    126 H126      -82.6764   23.9777  -76.1203 H         1 UNK         0.0793 
    127 H127      -81.2944   27.2036  -76.2512 H         1 UNK         0.2896 
@<TRIPOS>BOND
     1    1    2 1    
     2    1   67 1    
     3    1   68 1    
     4    1   69 1    
     5    2    3 2    
     6    2    4 am   BACKBONE|DICT|INTERRES
     7    4    5 1    
     8    4   70 1    
     9    5    6 1    
    10    5   65 1    
    11    5   71 1    
    12    6    7 1    
    13    6   72 1    
    14    6   73 1    
    15    7    8 1    
    16    8    9 1    
    17    8   74 1    
    18    8   75 1    
    19    9   10 ar   
    20    9   14 ar   
    21   10   11 ar   
    22   10   76 1    
    23   11   12 ar   
    24   11   48 1    
    25   12   13 ar   
    26   12   77 1    
    27   13   14 ar   
    28   13   15 1    
    29   14   78 1    
    30   15   16 1    
    31   15   79 1    
    32   15   80 1    
    33   16   17 1    
    34   17   18 1    
    35   17   81 1    
    36   17   82 1    
    37   18   19 1    
    38   18   22 1    
    39   18   83 1    
    40   19   20 am   BACKBONE|DICT|INTERRES
    41   19   21 2    
    42   20   84 1    
    43   20   85 1    
    44   22   23 am   BACKBONE|DICT|INTERRES
    45   22   86 1    
    46   23   24 2    
    47   23   25 1    
    48   25   26 1    
    49   25   27 1    
    50   25   87 1    
    51   26   88 1    
    52   26   89 1    
    53   26   90 1    
    54   27   28 am   BACKBONE|DICT|INTERRES
    55   27   91 1    
    56   28   29 2    
    57   28   30 1    
    58   30   31 1    
    59   30   32 1    
    60   30   92 1    
    61   31   93 1    
    62   31   94 1    
    63   31   95 1    
    64   32   33 am   BACKBONE|DICT|INTERRES
    65   32   96 1    
    66   33   34 2    
    67   33   35 1    
    68   35   36 1    
    69   35   37 1    
    70   35   97 1    
    71   36   98 1    
    72   36   99 1    
    73   36  100 1    
    74   37   38 am   BACKBONE|DICT|INTERRES
    75   37  101 1    
    76   38   39 2    
    77   38   40 1    
    78   40   41 1    
    79   40   42 1    
    80   40  102 1    
    81   41  103 1    
    82   41  104 1    
    83   41  105 1    
    84   42   43 am   BACKBONE|DICT|INTERRES
    85   42  106 1    
    86   43   44 2    
    87   43   45 1    
    88   45   46 1    
    89   45   49 1    
    90   45  107 1    
    91   46   47 1    
    92   46  108 1    
    93   46  109 1    
    94   47   48 1    
    95   48  110 1    
    96   48  111 1    
    97   49   50 am   BACKBONE|DICT|INTERRES
    98   49  112 1    
    99   50   51 2    
   100   50   52 1    
   101   52   53 1    
   102   52   54 1    
   103   52  113 1    
   104   53  114 1    
   105   53  115 1    
   106   53  116 1    
   107   54   55 am   BACKBONE|DICT|INTERRES
   108   54  117 1    
   109   55   56 2    
   110   55   57 1    
   111   57   58 1    
   112   57   59 1    
   113   57  118 1    
   114   58  119 1    
   115   58  120 1    
   116   58  121 1    
   117   59   60 am   BACKBONE|DICT|INTERRES
   118   59  122 1    
   119   60   61 2    
   120   60   62 1    
   121   62   63 1    
   122   62   64 1    
   123   62  123 1    
   124   63  124 1    
   125   63  125 1    
   126   63  126 1    
   127   64   65 am   BACKBONE|DICT|INTERRES
   128   64  127 1    
   129   65   66 2    
@<TRIPOS>SUBSTRUCTURE
     1 UNK         1 GROUP             0       ****    0 ROOT    
