@<TRIPOS>MOLECULE
3R135
127   129    1
SMALL
USER_CHARGES


@<TRIPOS>ATOM
      1 CA        -84.0824   25.4507  -71.4351 C.3       0 UNK        -0.1998 
      2 C         -82.9726   24.4168  -71.2609 C.2       0 UNK         0.4909 
      3 O         -83.2478   23.3104  -70.8014 O.2       0 UNK        -0.5240 
      4 N         -81.7102   24.7168  -71.6019 N.am      1 UNK        -0.4739 
      5 CA        -81.2167   25.9715  -72.1903 C.3       1 UNK         0.0864 
      6 C6        -79.6745   26.0752  -72.0896 C.3       11 UNK        -0.0881 
      7 S7        -79.0764   26.1963  -70.3697 S.3       11 UNK        -0.2682 
      8 C8        -79.2957   27.9688  -69.9959 C.3       11 UNK         0.0289 
      9 C9        -78.4076   28.8614  -70.8516 C.ar      11 UNK        -0.0687 
     10 C10       -78.9036   29.4087  -72.0386 C.ar      11 UNK        -0.0823 
     11 C11       -78.0904   30.2030  -72.8490 C.ar      11 UNK        -0.0830 
     12 C12       -76.7850   30.4905  -72.4415 C.ar      11 UNK        -0.1021 
     13 C13       -76.2843   29.9702  -71.2448 C.ar      11 UNK        -0.0753 
     14 C14       -77.0966   29.1485  -70.4564 C.ar      11 UNK        -0.0933 
     15 C15       -74.8660   30.3038  -70.8127 C.3       11 UNK         0.0166 
     16 S16       -73.6783   29.1175  -71.5063 S.3       11 UNK        -0.2615 
     17 C17       -72.1181   30.0504  -71.3299 C.3       11 UNK        -0.0865 
     18 CA        -71.7298   30.8073  -72.6287 C.3       10 UNK         0.0862 
     19 C         -70.4685   31.6921  -72.4094 C.2       10 UNK         0.5551 
     20 N         -69.3712   31.4789  -73.1256 N.am      10 UNK        -0.7319 
     21 O         -70.4907   32.5948  -71.5763 O.2       10 UNK        -0.5018 
     22 N         -71.6396   29.8899  -73.7746 N.am      10 UNK        -0.4509 
     23 C         -71.8116   30.2149  -75.0595 C.2       10 UNK         0.4899 
     24 O         -72.0308   31.3630  -75.4470 O.2       10 UNK        -0.4839 
     25 CA        -71.7584   29.0762  -76.0984 C.3       9 UNK         0.0222 
     26 CB        -70.3978   29.0403  -76.8213 C.3       9 UNK        -0.1966 
     27 N         -72.1359   27.7485  -75.5868 N.am      9 UNK        -0.4218 
     28 C         -71.4856   26.9615  -74.7158 C.2       9 UNK         0.5020 
     29 O         -70.4194   27.2664  -74.1804 O.2       9 UNK        -0.5274 
     30 CA        -72.1529   25.6320  -74.3311 C.3       8 UNK         0.0270 
     31 CB        -73.0392   25.8240  -73.0908 C.3       8 UNK        -0.1976 
     32 N         -72.9429   25.0445  -75.4161 N.am      8 UNK        -0.4313 
     33 C         -72.4096   24.4344  -76.4851 C.2       8 UNK         0.5041 
     34 O         -71.1982   24.2929  -76.6586 O.2       8 UNK        -0.5577 
     35 CA        -73.3854   23.8839  -77.5398 C.3       7 UNK         0.0284 
     36 CB        -74.0063   22.5600  -77.0680 C.3       7 UNK        -0.1958 
     37 N         -74.4403   24.8381  -77.8874 N.am      7 UNK        -0.4454 
     38 C         -74.2270   25.9874  -78.5449 C.2       7 UNK         0.5089 
     39 O         -73.1285   26.3438  -78.9714 O.2       7 UNK        -0.5125 
     40 CA        -75.4415   26.9082  -78.7460 C.3       6 UNK         0.0408 
     41 CB        -76.2102   26.5287  -80.0215 C.3       6 UNK        -0.1791 
     42 N         -76.3536   26.9057  -77.6009 N.am      6 UNK        -0.4762 
     43 C         -76.0469   27.3818  -76.3847 C.2       6 UNK         0.5007 
     44 O         -74.9497   27.8573  -76.0926 O.2       6 UNK        -0.5032 
     45 CA        -77.1414   27.2531  -75.3040 C.3       5 UNK         0.0783 
     46 C46       -78.2999   28.2635  -75.5351 C.3       11 UNK        -0.0857 
     47 S47       -77.7788   30.0172  -75.5995 S.3       11 UNK        -0.2512 
     48 C48       -78.6232   30.7510  -74.1633 C.3       11 UNK         0.0225 
     49 N         -77.6301   25.8668  -75.2361 N.am      5 UNK        -0.4615 
     50 C         -76.8629   24.8051  -74.9282 C.2       4 UNK         0.5053 
     51 O         -75.6910   24.9007  -74.5704 O.2       4 UNK        -0.5105 
     52 CA        -77.4514   23.3898  -75.1033 C.3       4 UNK         0.0263 
     53 CB        -77.9478   22.8097  -73.7696 C.3       4 UNK        -0.1981 
     54 N         -78.5164   23.3017  -76.0990 N.am      4 UNK        -0.4224 
     55 C         -78.3917   23.6008  -77.3995 C.2       3 UNK         0.4895 
     56 O         -77.3188   23.8805  -77.9360 O.2       3 UNK        -0.5091 
     57 CA        -79.6960   23.6605  -78.2201 C.3       3 UNK         0.0250 
     58 CB        -79.8866   22.3612  -79.0180 C.3       3 UNK        -0.1996 
     59 N         -80.9007   23.9211  -77.4136 N.am      3 UNK        -0.4254 
     60 C         -81.0900   25.0018  -76.6394 C.2       2 UNK         0.5004 
     61 O         -80.2625   25.9086  -76.5501 O.2       2 UNK        -0.5226 
     62 CA        -82.3631   25.0620  -75.7737 C.3       2 UNK         0.0269 
     63 CB        -83.3495   23.9009  -76.0161 C.3       2 UNK        -0.1926 
     64 N         -81.9930   25.0795  -74.3556 N.am      2 UNK        -0.4687 
     65 C         -81.6654   26.1751  -73.6539 C.2       1 UNK         0.5165 
     66 O         -81.7201   27.3195  -74.1037 O.2       1 UNK        -0.5079 
     67 H67       -84.3081   25.6060  -72.4895 H         1 UNK         0.0900 
     68 H68       -84.9966   25.1090  -70.9501 H         1 UNK         0.0900 
     69 H69       -83.8143   26.4053  -70.9845 H         1 UNK         0.0900 
     70 H70       -80.9986   24.0208  -71.4307 H         1 UNK         0.2959 
     71 H71       -81.6394   26.8034  -71.6251 H         1 UNK         0.1079 
     72 H72       -79.2864   26.9126  -72.6657 H         1 UNK         0.0837 
     73 H73       -79.2076   25.1996  -72.5356 H         1 UNK         0.0837 
     74 H74       -80.3443   28.2416  -70.1217 H         1 UNK         0.0685 
     75 H75       -79.0686   28.1323  -68.9414 H         1 UNK         0.0685 
     76 H76       -79.9189   29.1944  -72.3449 H         1 UNK         0.1434 
     77 H77       -76.1540   31.1104  -73.0642 H         1 UNK         0.1329 
     78 H78       -76.7086   28.7313  -69.5371 H         1 UNK         0.1335 
     79 H79       -74.7863   30.3036  -69.7245 H         1 UNK         0.0680 
     80 H80       -74.6116   31.3126  -71.1423 H         1 UNK         0.0680 
     81 H81       -72.2091   30.7407  -70.4887 H         1 UNK         0.1032 
     82 H82       -71.3307   29.3465  -71.0543 H         1 UNK         0.1032 
     83 H83       -72.5393   31.5079  -72.8429 H         1 UNK         0.0461 
     84 H84       -68.5611   32.0603  -72.9786 H         1 UNK         0.3453 
     85 H85       -69.3485   30.7397  -73.8096 H         1 UNK         0.3453 
     86 H86       -71.3911   28.9307  -73.5647 H         1 UNK         0.2984 
     87 H87       -72.5164   29.3142  -76.8463 H         1 UNK         0.0554 
     88 H88       -70.1876   29.9976  -77.3002 H         1 UNK         0.0847 
     89 H89       -70.3852   28.2784  -77.6009 H         1 UNK         0.0847 
     90 H90       -69.5743   28.8349  -76.1372 H         1 UNK         0.0847 
     91 H91       -73.0689   27.4565  -75.8681 H         1 UNK         0.3141 
     92 H92       -71.3584   24.9298  -74.0694 H         1 UNK         0.0743 
     93 H93       -72.4639   26.2273  -72.2563 H         1 UNK         0.0784 
     94 H94       -73.8597   26.5164  -73.2858 H         1 UNK         0.0784 
     95 H95       -73.4711   24.8792  -72.7604 H         1 UNK         0.0784 
     96 H96       -73.9549   25.0783  -75.3091 H         1 UNK         0.3213 
     97 H97       -72.8149   23.6808  -78.4490 H         1 UNK         0.0855 
     98 H98       -74.4852   22.6639  -76.0954 H         1 UNK         0.0814 
     99 H99       -73.2398   21.7908  -76.9660 H         1 UNK         0.0814 
    100 H100      -74.7485   22.1884  -77.7750 H         1 UNK         0.0814 
    101 H101      -75.3945   24.5973  -77.6394 H         1 UNK         0.3105 
    102 H102      -75.0667   27.9268  -78.8681 H         1 UNK         0.0547 
    103 H103      -77.0320   27.2192  -80.2109 H         1 UNK         0.0837 
    104 H104      -75.5551   26.5601  -80.8932 H         1 UNK         0.0837 
    105 H105      -76.6238   25.5214  -79.9632 H         1 UNK         0.0837 
    106 H106      -77.2579   26.4770  -77.7390 H         1 UNK         0.3020 
    107 H107      -76.6768   27.4858  -74.3424 H         1 UNK         0.1245 
    108 H108      -79.0582   28.1413  -74.7614 H         1 UNK         0.0781 
    109 H109      -78.8078   28.0481  -76.4761 H         1 UNK         0.0781 
    110 H110      -79.6979   30.5847  -74.2549 H         1 UNK         0.0836 
    111 H111      -78.4787   31.8321  -74.1835 H         1 UNK         0.0836 
    112 H112      -78.5749   25.7166  -75.5784 H         1 UNK         0.3022 
    113 H113      -76.6377   22.7533  -75.4510 H         1 UNK         0.0747 
    114 H114      -78.0598   21.7272  -73.8353 H         1 UNK         0.0793 
    115 H115      -77.2431   23.0098  -72.9607 H         1 UNK         0.0793 
    116 H116      -78.9138   23.2185  -73.4790 H         1 UNK         0.0793 
    117 H117      -79.4369   23.0686  -75.7588 H         1 UNK         0.3047 
    118 H118      -79.5897   24.4857  -78.9275 H         1 UNK         0.0822 
    119 H119      -79.0164   22.1566  -79.6437 H         1 UNK         0.0807 
    120 H120      -80.7504   22.4243  -79.6802 H         1 UNK         0.0807 
    121 H121      -80.0261   21.5005  -78.3626 H         1 UNK         0.0807 
    122 H122      -81.6220   23.2144  -77.4365 H         1 UNK         0.2946 
    123 H123      -82.8715   25.9950  -76.0286 H         1 UNK         0.1144 
    124 H124      -84.2494   24.0259  -75.4133 H         1 UNK         0.0793 
    125 H125      -82.9198   22.9311  -75.7617 H         1 UNK         0.0793 
    126 H126      -83.6730   23.8652  -77.0575 H         1 UNK         0.0793 
    127 H127      -81.9203   24.1843  -73.8934 H         1 UNK         0.2896 
@<TRIPOS>BOND
     1    1    2 1    
     2    1   67 1    
     3    1   68 1    
     4    1   69 1    
     5    2    3 2    
     6    2    4 am   BACKBONE|DICT|INTERRES
     7    4    5 1    
     8    4   70 1    
     9    5    6 1    
    10    5   65 1    
    11    5   71 1    
    12    6    7 1    
    13    6   72 1    
    14    6   73 1    
    15    7    8 1    
    16    8    9 1    
    17    8   74 1    
    18    8   75 1    
    19    9   10 ar   
    20    9   14 ar   
    21   10   11 ar   
    22   10   76 1    
    23   11   12 ar   
    24   11   48 1    
    25   12   13 ar   
    26   12   77 1    
    27   13   14 ar   
    28   13   15 1    
    29   14   78 1    
    30   15   16 1    
    31   15   79 1    
    32   15   80 1    
    33   16   17 1    
    34   17   18 1    
    35   17   81 1    
    36   17   82 1    
    37   18   19 1    
    38   18   22 1    
    39   18   83 1    
    40   19   20 am   BACKBONE|DICT|INTERRES
    41   19   21 2    
    42   20   84 1    
    43   20   85 1    
    44   22   23 am   BACKBONE|DICT|INTERRES
    45   22   86 1    
    46   23   24 2    
    47   23   25 1    
    48   25   26 1    
    49   25   27 1    
    50   25   87 1    
    51   26   88 1    
    52   26   89 1    
    53   26   90 1    
    54   27   28 am   BACKBONE|DICT|INTERRES
    55   27   91 1    
    56   28   29 2    
    57   28   30 1    
    58   30   31 1    
    59   30   32 1    
    60   30   92 1    
    61   31   93 1    
    62   31   94 1    
    63   31   95 1    
    64   32   33 am   BACKBONE|DICT|INTERRES
    65   32   96 1    
    66   33   34 2    
    67   33   35 1    
    68   35   36 1    
    69   35   37 1    
    70   35   97 1    
    71   36   98 1    
    72   36   99 1    
    73   36  100 1    
    74   37   38 am   BACKBONE|DICT|INTERRES
    75   37  101 1    
    76   38   39 2    
    77   38   40 1    
    78   40   41 1    
    79   40   42 1    
    80   40  102 1    
    81   41  103 1    
    82   41  104 1    
    83   41  105 1    
    84   42   43 am   BACKBONE|DICT|INTERRES
    85   42  106 1    
    86   43   44 2    
    87   43   45 1    
    88   45   46 1    
    89   45   49 1    
    90   45  107 1    
    91   46   47 1    
    92   46  108 1    
    93   46  109 1    
    94   47   48 1    
    95   48  110 1    
    96   48  111 1    
    97   49   50 am   BACKBONE|DICT|INTERRES
    98   49  112 1    
    99   50   51 2    
   100   50   52 1    
   101   52   53 1    
   102   52   54 1    
   103   52  113 1    
   104   53  114 1    
   105   53  115 1    
   106   53  116 1    
   107   54   55 am   BACKBONE|DICT|INTERRES
   108   54  117 1    
   109   55   56 2    
   110   55   57 1    
   111   57   58 1    
   112   57   59 1    
   113   57  118 1    
   114   58  119 1    
   115   58  120 1    
   116   58  121 1    
   117   59   60 am   BACKBONE|DICT|INTERRES
   118   59  122 1    
   119   60   61 2    
   120   60   62 1    
   121   62   63 1    
   122   62   64 1    
   123   62  123 1    
   124   63  124 1    
   125   63  125 1    
   126   63  126 1    
   127   64   65 am   BACKBONE|DICT|INTERRES
   128   64  127 1    
   129   65   66 2    
@<TRIPOS>SUBSTRUCTURE
     1 UNK         1 GROUP             0       ****    0 ROOT    
