@<TRIPOS>MOLECULE
3R135
127   129    1
SMALL
USER_CHARGES


@<TRIPOS>ATOM
      1 CA        -78.7124   22.8125  -70.8483 C.3       0 UNK        -0.1998 
      2 C         -79.7401   23.5518  -71.6905 C.2       0 UNK         0.4909 
      3 O         -80.4282   22.9267  -72.4984 O.2       0 UNK        -0.5240 
      4 N         -79.8445   24.8765  -71.5110 N.am      1 UNK        -0.4739 
      5 CA        -80.7569   25.7807  -72.2238 C.3       1 UNK         0.0864 
      6 C6        -80.5641   27.2536  -71.7916 C.3       11 UNK        -0.0881 
      7 S7        -80.7098   27.5402  -69.9966 S.3       11 UNK        -0.2682 
      8 C8        -80.8019   29.3626  -69.9401 C.3       11 UNK         0.0289 
      9 C9        -79.6799   30.0203  -70.7343 C.ar      11 UNK        -0.0687 
     10 C10       -79.9279   30.5205  -72.0164 C.ar      11 UNK        -0.0823 
     11 C11       -78.8955   31.0765  -72.7774 C.ar      11 UNK        -0.0830 
     12 C12       -77.6090   31.1531  -72.2341 C.ar      11 UNK        -0.1021 
     13 C13       -77.3475   30.6534  -70.9547 C.ar      11 UNK        -0.0753 
     14 C14       -78.3890   30.0971  -70.2053 C.ar      11 UNK        -0.0933 
     15 C15       -75.9386   30.7015  -70.3827 C.3       11 UNK         0.0166 
     16 S16       -75.1912   29.0433  -70.2932 S.3       11 UNK        -0.2615 
     17 C17       -74.8651   28.6643  -72.0506 C.3       11 UNK        -0.0865 
     18 CA        -73.3591   28.7452  -72.4073 C.3       10 UNK         0.0862 
     19 C         -72.5287   27.6091  -71.7541 C.2       10 UNK         0.5551 
     20 N         -71.6303   27.9372  -70.8358 N.am      10 UNK        -0.7319 
     21 O         -72.7144   26.4333  -72.0581 O.2       10 UNK        -0.5018 
     22 N         -73.1617   28.7175  -73.8605 N.am      10 UNK        -0.4509 
     23 C         -72.1788   29.3687  -74.4968 C.2       10 UNK         0.4899 
     24 O         -71.4162   30.1659  -73.9480 O.2       10 UNK        -0.4839 
     25 CA        -72.0307   29.0743  -76.0025 C.3       9 UNK         0.0222 
     26 CB        -70.7412   29.6593  -76.6164 C.3       9 UNK        -0.1966 
     27 N         -72.1564   27.6451  -76.3052 N.am      9 UNK        -0.4218 
     28 C         -71.3871   26.6349  -75.8660 C.2       9 UNK         0.5020 
     29 O         -70.3708   26.7870  -75.1871 O.2       9 UNK        -0.5274 
     30 CA        -71.8294   25.2068  -76.2376 C.3       8 UNK         0.0270 
     31 CB        -72.1024   24.3752  -74.9719 C.3       8 UNK        -0.1976 
     32 N         -73.0390   25.2170  -77.0667 N.am      8 UNK        -0.4313 
     33 C         -73.0962   24.8389  -78.3501 C.2       8 UNK         0.5041 
     34 O         -72.1513   24.3482  -78.9692 O.2       8 UNK        -0.5577 
     35 CA        -74.4302   25.0769  -79.0768 C.3       7 UNK         0.0284 
     36 CB        -75.4833   24.0457  -78.6403 C.3       7 UNK        -0.1958 
     37 N         -74.9624   26.4263  -78.8734 N.am      7 UNK        -0.4454 
     38 C         -74.3939   27.5725  -79.2694 C.2       7 UNK         0.5089 
     39 O         -73.3212   27.6298  -79.8689 O.2       7 UNK        -0.5125 
     40 CA        -75.1232   28.8872  -78.9195 C.3       6 UNK         0.0408 
     41 CB        -76.1530   29.2540  -80.0053 C.3       6 UNK        -0.1791 
     42 N         -75.7176   28.9241  -77.5724 N.am      6 UNK        -0.4762 
     43 C         -76.7222   28.1829  -77.0821 C.2       6 UNK         0.5007 
     44 O         -77.3589   27.3614  -77.7456 O.2       6 UNK        -0.5032 
     45 CA        -77.0170   28.3241  -75.5767 C.3       5 UNK         0.0783 
     46 C46       -78.3314   29.0989  -75.3145 C.3       11 UNK        -0.0857 
     47 S47       -78.0615   30.9006  -75.4526 S.3       11 UNK        -0.2512 
     48 C48       -79.1826   31.5863  -74.1857 C.3       11 UNK         0.0225 
     49 N         -77.0173   27.0006  -74.9493 N.am      5 UNK        -0.4615 
     50 C         -75.9373   26.2165  -74.8428 C.2       4 UNK         0.5053 
     51 O         -74.8172   26.5638  -75.2224 O.2       4 UNK        -0.5105 
     52 CA        -76.1176   24.8245  -74.2243 C.3       4 UNK         0.0263 
     53 CB        -76.1915   24.9150  -72.6924 C.3       4 UNK        -0.1981 
     54 N         -77.3096   24.1363  -74.7307 N.am      4 UNK        -0.4224 
     55 C         -77.2936   22.9265  -75.3131 C.2       3 UNK         0.4895 
     56 O         -76.2584   22.2994  -75.5415 O.2       3 UNK        -0.5091 
     57 CA        -78.6352   22.2677  -75.6913 C.3       3 UNK         0.0250 
     58 CB        -78.8354   20.9614  -74.9029 C.3       3 UNK        -0.1996 
     59 N         -79.7931   23.1335  -75.4649 N.am      3 UNK        -0.4254 
     60 C         -80.2995   23.9794  -76.3738 C.2       2 UNK         0.5004 
     61 O         -79.8814   24.0700  -77.5280 O.2       2 UNK        -0.5226 
     62 CA        -81.4569   24.8961  -75.9244 C.3       2 UNK         0.0269 
     63 CB        -82.8037   24.3382  -76.4125 C.3       2 UNK        -0.1926 
     64 N         -81.5297   25.1267  -74.4750 N.am      2 UNK        -0.4687 
     65 C         -80.5495   25.6756  -73.7460 C.2       1 UNK         0.5165 
     66 O         -79.4776   26.0468  -74.2258 O.2       1 UNK        -0.5079 
     67 H67       -78.1161   23.4936  -70.2414 H         1 UNK         0.0900 
     68 H68       -79.2113   22.1098  -70.1817 H         1 UNK         0.0900 
     69 H69       -78.0362   22.2498  -71.4913 H         1 UNK         0.0900 
     70 H70       -79.2600   25.3282  -70.8223 H         1 UNK         0.2959 
     71 H71       -81.7777   25.4780  -71.9823 H         1 UNK         0.1079 
     72 H72       -81.2936   27.8883  -72.2987 H         1 UNK         0.0837 
     73 H73       -79.5779   27.6104  -72.0979 H         1 UNK         0.0837 
     74 H74       -81.7749   29.6813  -70.3173 H         1 UNK         0.0685 
     75 H75       -80.7562   29.6891  -68.9002 H         1 UNK         0.0685 
     76 H76       -80.9251   30.4558  -72.4302 H         1 UNK         0.1434 
     77 H77       -76.8077   31.5845  -72.8185 H         1 UNK         0.1329 
     78 H78       -78.1880   29.6985  -69.2202 H         1 UNK         0.1335 
     79 H79       -75.9751   31.1260  -69.3784 H         1 UNK         0.0680 
     80 H80       -75.2957   31.3587  -70.9706 H         1 UNK         0.0680 
     81 H81       -75.4292   29.3582  -72.6738 H         1 UNK         0.1032 
     82 H82       -75.2685   27.6776  -72.2741 H         1 UNK         0.1032 
     83 H83       -72.9970   29.7038  -72.0287 H         1 UNK         0.0461 
     84 H84       -71.0910   27.2084  -70.3958 H         1 UNK         0.3453 
     85 H85       -71.4802   28.8998  -70.5769 H         1 UNK         0.3453 
     86 H86       -73.6791   28.0043  -74.3640 H         1 UNK         0.2984 
     87 H87       -72.8738   29.5643  -76.4907 H         1 UNK         0.0554 
     88 H88       -70.7095   30.7432  -76.4993 H         1 UNK         0.0847 
     89 H89       -70.6791   29.4479  -77.6840 H         1 UNK         0.0847 
     90 H90       -69.8460   29.2563  -76.1419 H         1 UNK         0.0847 
     91 H91       -72.9630   27.3868  -76.8526 H         1 UNK         0.3141 
     92 H92       -70.9989   24.7463  -76.7762 H         1 UNK         0.0743 
     93 H93       -71.1994   24.2751  -74.3683 H         1 UNK         0.0784 
     94 H94       -72.8604   24.8389  -74.3401 H         1 UNK         0.0784 
     95 H95       -72.4402   23.3691  -75.2207 H         1 UNK         0.0784 
     96 H96       -73.8698   25.5936  -76.6188 H         1 UNK         0.3213 
     97 H97       -74.2509   24.9503  -80.1466 H         1 UNK         0.0855 
     98 H98       -75.7537   24.1666  -77.5913 H         1 UNK         0.0814 
     99 H99       -75.1128   23.0274  -78.7667 H         1 UNK         0.0814 
    100 H100      -76.3953   24.1345  -79.2309 H         1 UNK         0.0814 
    101 H101      -75.8722   26.5059  -78.4237 H         1 UNK         0.3105 
    102 H102      -74.3626   29.6700  -78.9200 H         1 UNK         0.0547 
    103 H103      -76.6259   30.2132  -79.7953 H         1 UNK         0.0837 
    104 H104      -76.9400   28.5051  -80.0963 H         1 UNK         0.0837 
    105 H105      -75.6737   29.3363  -80.9817 H         1 UNK         0.0837 
    106 H106      -75.2742   29.5771  -76.9415 H         1 UNK         0.3020 
    107 H107      -76.1981   28.8761  -75.1102 H         1 UNK         0.1245 
    108 H108      -78.6925   28.8752  -74.3101 H         1 UNK         0.0781 
    109 H109      -79.1303   28.7894  -75.9914 H         1 UNK         0.0781 
    110 H110      -80.2099   31.3636  -74.4785 H         1 UNK         0.0836 
    111 H111      -79.0925   32.6733  -74.1893 H         1 UNK         0.0836 
    112 H112      -77.9272   26.6505  -74.6520 H         1 UNK         0.3022 
    113 H113      -75.2200   24.2564  -74.4750 H         1 UNK         0.0747 
    114 H114      -76.2941   23.9265  -72.2461 H         1 UNK         0.0793 
    115 H115      -75.2794   25.3510  -72.2841 H         1 UNK         0.0793 
    116 H116      -77.0316   25.5257  -72.3591 H         1 UNK         0.0793 
    117 H117      -78.1951   24.6201  -74.6208 H         1 UNK         0.3047 
    118 H118      -78.5766   22.0109  -76.7513 H         1 UNK         0.0822 
    119 H119      -79.7678   20.4694  -75.1800 H         1 UNK         0.0807 
    120 H120      -78.8559   21.1368  -73.8270 H         1 UNK         0.0807 
    121 H121      -78.0278   20.2555  -75.1014 H         1 UNK         0.0807 
    122 H122      -80.1922   23.1190  -74.5305 H         1 UNK         0.2946 
    123 H123      -81.2922   25.8647  -76.4021 H         1 UNK         0.1144 
    124 H124      -83.0355   23.3797  -75.9463 H         1 UNK         0.0793 
    125 H125      -82.7937   24.1813  -77.4923 H         1 UNK         0.0793 
    126 H126      -83.6215   25.0256  -76.1956 H         1 UNK         0.0793 
    127 H127      -82.3647   24.8025  -74.0077 H         1 UNK         0.2896 
@<TRIPOS>BOND
     1    1    2 1    
     2    1   67 1    
     3    1   68 1    
     4    1   69 1    
     5    2    3 2    
     6    2    4 am   BACKBONE|DICT|INTERRES
     7    4    5 1    
     8    4   70 1    
     9    5    6 1    
    10    5   65 1    
    11    5   71 1    
    12    6    7 1    
    13    6   72 1    
    14    6   73 1    
    15    7    8 1    
    16    8    9 1    
    17    8   74 1    
    18    8   75 1    
    19    9   10 ar   
    20    9   14 ar   
    21   10   11 ar   
    22   10   76 1    
    23   11   12 ar   
    24   11   48 1    
    25   12   13 ar   
    26   12   77 1    
    27   13   14 ar   
    28   13   15 1    
    29   14   78 1    
    30   15   16 1    
    31   15   79 1    
    32   15   80 1    
    33   16   17 1    
    34   17   18 1    
    35   17   81 1    
    36   17   82 1    
    37   18   19 1    
    38   18   22 1    
    39   18   83 1    
    40   19   20 am   BACKBONE|DICT|INTERRES
    41   19   21 2    
    42   20   84 1    
    43   20   85 1    
    44   22   23 am   BACKBONE|DICT|INTERRES
    45   22   86 1    
    46   23   24 2    
    47   23   25 1    
    48   25   26 1    
    49   25   27 1    
    50   25   87 1    
    51   26   88 1    
    52   26   89 1    
    53   26   90 1    
    54   27   28 am   BACKBONE|DICT|INTERRES
    55   27   91 1    
    56   28   29 2    
    57   28   30 1    
    58   30   31 1    
    59   30   32 1    
    60   30   92 1    
    61   31   93 1    
    62   31   94 1    
    63   31   95 1    
    64   32   33 am   BACKBONE|DICT|INTERRES
    65   32   96 1    
    66   33   34 2    
    67   33   35 1    
    68   35   36 1    
    69   35   37 1    
    70   35   97 1    
    71   36   98 1    
    72   36   99 1    
    73   36  100 1    
    74   37   38 am   BACKBONE|DICT|INTERRES
    75   37  101 1    
    76   38   39 2    
    77   38   40 1    
    78   40   41 1    
    79   40   42 1    
    80   40  102 1    
    81   41  103 1    
    82   41  104 1    
    83   41  105 1    
    84   42   43 am   BACKBONE|DICT|INTERRES
    85   42  106 1    
    86   43   44 2    
    87   43   45 1    
    88   45   46 1    
    89   45   49 1    
    90   45  107 1    
    91   46   47 1    
    92   46  108 1    
    93   46  109 1    
    94   47   48 1    
    95   48  110 1    
    96   48  111 1    
    97   49   50 am   BACKBONE|DICT|INTERRES
    98   49  112 1    
    99   50   51 2    
   100   50   52 1    
   101   52   53 1    
   102   52   54 1    
   103   52  113 1    
   104   53  114 1    
   105   53  115 1    
   106   53  116 1    
   107   54   55 am   BACKBONE|DICT|INTERRES
   108   54  117 1    
   109   55   56 2    
   110   55   57 1    
   111   57   58 1    
   112   57   59 1    
   113   57  118 1    
   114   58  119 1    
   115   58  120 1    
   116   58  121 1    
   117   59   60 am   BACKBONE|DICT|INTERRES
   118   59  122 1    
   119   60   61 2    
   120   60   62 1    
   121   62   63 1    
   122   62   64 1    
   123   62  123 1    
   124   63  124 1    
   125   63  125 1    
   126   63  126 1    
   127   64   65 am   BACKBONE|DICT|INTERRES
   128   64  127 1    
   129   65   66 2    
@<TRIPOS>SUBSTRUCTURE
     1 UNK         1 GROUP             0       ****    0 ROOT    
