@<TRIPOS>MOLECULE
3R135
127   129    1
SMALL
USER_CHARGES


@<TRIPOS>ATOM
      1 CA        -84.4620   27.8593  -71.3569 C.3       0 UNK        -0.1998 
      2 C         -84.0173   27.8027  -72.8106 C.2       0 UNK         0.4909 
      3 O         -84.8033   27.4182  -73.6769 O.2       0 UNK        -0.5240 
      4 N         -82.7634   28.1885  -73.0820 N.am      1 UNK        -0.4739 
      5 CA        -82.1516   28.1912  -74.4174 C.3       1 UNK         0.0864 
      6 C6        -80.8121   28.9706  -74.4555 C.3       11 UNK        -0.0881 
      7 S7        -80.9644   30.7311  -73.9862 S.3       11 UNK        -0.2682 
      8 C8        -80.7666   30.7315  -72.1705 C.3       11 UNK         0.0289 
      9 C9        -79.4313   30.1624  -71.7122 C.ar      11 UNK        -0.0687 
     10 C10       -79.3304   28.8223  -71.3274 C.ar      11 UNK        -0.0823 
     11 C11       -78.1087   28.2919  -70.9077 C.ar      11 UNK        -0.0830 
     12 C12       -76.9897   29.1250  -70.8249 C.ar      11 UNK        -0.1021 
     13 C13       -77.0768   30.4687  -71.2048 C.ar      11 UNK        -0.0753 
     14 C14       -78.2992   30.9796  -71.6532 C.ar      11 UNK        -0.0933 
     15 C15       -75.8560   31.3738  -71.1301 C.3       11 UNK         0.0166 
     16 S16       -74.7455   31.1187  -72.5498 S.3       11 UNK        -0.2615 
     17 C17       -73.7910   29.6615  -72.0024 C.3       11 UNK        -0.0865 
     18 CA        -72.3742   29.6261  -72.6297 C.3       10 UNK         0.0862 
     19 C         -71.4328   28.6122  -71.9120 C.2       10 UNK         0.5551 
     20 N         -70.6237   27.8279  -72.6147 N.am      10 UNK        -0.7319 
     21 O         -71.4205   28.5438  -70.6854 O.2       10 UNK        -0.5018 
     22 N         -72.4542   29.4163  -74.0822 N.am      10 UNK        -0.4509 
     23 C         -71.6876   30.0238  -74.9935 C.2       10 UNK         0.4899 
     24 O         -70.8691   30.9065  -74.7291 O.2       10 UNK        -0.4839 
     25 CA        -71.8523   29.5250  -76.4420 C.3       9 UNK         0.0222 
     26 CB        -70.7883   30.0952  -77.4033 C.3       9 UNK        -0.1966 
     27 N         -71.8956   28.0595  -76.5303 N.am      9 UNK        -0.4218 
     28 C         -70.9647   27.1906  -76.0998 C.2       9 UNK         0.5020 
     29 O         -69.9155   27.5349  -75.5538 O.2       9 UNK        -0.5274 
     30 CA        -71.2440   25.6816  -76.2527 C.3       8 UNK         0.0270 
     31 CB        -71.3367   25.0139  -74.8706 C.3       8 UNK        -0.1976 
     32 N         -72.4560   25.3734  -77.0151 N.am      8 UNK        -0.4313 
     33 C         -72.5816   25.5223  -78.3406 C.2       8 UNK         0.5041 
     34 O         -71.6574   25.8547  -79.0836 O.2       8 UNK        -0.5577 
     35 CA        -73.9840   25.3100  -78.9313 C.3       7 UNK         0.0284 
     36 CB        -74.1871   23.8331  -79.3034 C.3       7 UNK        -0.1958 
     37 N         -75.0611   25.7608  -78.0395 N.am      7 UNK        -0.4454 
     38 C         -75.2598   27.0373  -77.6732 C.2       7 UNK         0.5089 
     39 O         -74.5514   27.9701  -78.0517 O.2       7 UNK        -0.5125 
     40 CA        -76.4041   27.3228  -76.6839 C.3       6 UNK         0.0408 
     41 CB        -77.7738   27.1962  -77.3681 C.3       6 UNK        -0.1791 
     42 N         -76.3481   26.4590  -75.5035 N.am      6 UNK        -0.4762 
     43 C         -75.3576   26.4829  -74.5969 C.2       6 UNK         0.5007 
     44 O         -74.4329   27.2987  -74.6150 O.2       6 UNK        -0.5032 
     45 CA        -75.3442   25.3698  -73.5297 C.3       5 UNK         0.0783 
     46 C46       -75.9241   25.8170  -72.1639 C.3       11 UNK        -0.0857 
     47 S47       -77.7441   25.8075  -72.0537 S.3       11 UNK        -0.2512 
     48 C48       -78.0101   26.8150  -70.5596 C.3       11 UNK         0.0225 
     49 N         -75.9182   24.1125  -74.0196 N.am      5 UNK        -0.4615 
     50 C         -75.3270   23.3301  -74.9317 C.2       4 UNK         0.5053 
     51 O         -74.2489   23.5963  -75.4638 O.2       4 UNK        -0.5105 
     52 CA        -76.0767   22.0511  -75.3359 C.3       4 UNK         0.0263 
     53 CB        -76.1523   21.0568  -74.1650 C.3       4 UNK        -0.1981 
     54 N         -77.4221   22.3149  -75.8511 N.am      4 UNK        -0.4224 
     55 C         -77.6867   23.0291  -76.9542 C.2       3 UNK         0.4895 
     56 O         -76.8284   23.5758  -77.6426 O.2       3 UNK        -0.5091 
     57 CA        -79.1601   23.1775  -77.3612 C.3       3 UNK         0.0250 
     58 CB        -79.6034   21.9795  -78.2162 C.3       3 UNK        -0.1996 
     59 N         -80.0932   23.3560  -76.2457 N.am      3 UNK        -0.4254 
     60 C         -80.0262   24.3330  -75.3313 C.2       2 UNK         0.5004 
     61 O         -79.0784   25.1145  -75.2184 O.2       2 UNK        -0.5226 
     62 CA        -81.2283   24.4439  -74.3783 C.3       2 UNK         0.0269 
     63 CB        -80.9627   23.6727  -73.0757 C.3       2 UNK        -0.1926 
     64 N         -81.5478   25.8370  -74.0602 N.am      2 UNK        -0.4687 
     65 C         -81.9411   26.7602  -74.9526 C.2       1 UNK         0.5165 
     66 O         -82.1508   26.5211  -76.1431 O.2       1 UNK        -0.5079 
     67 H67       -84.7552   26.8667  -71.0159 H         1 UNK         0.0900 
     68 H68       -85.3203   28.5225  -71.2531 H         1 UNK         0.0900 
     69 H69       -83.6716   28.2232  -70.7007 H         1 UNK         0.0900 
     70 H70       -82.1776   28.5199  -72.3324 H         1 UNK         0.2959 
     71 H71       -82.8493   28.6861  -75.0971 H         1 UNK         0.1079 
     72 H72       -80.4155   28.9598  -75.4728 H         1 UNK         0.0837 
     73 H73       -80.0485   28.4794  -73.8534 H         1 UNK         0.0837 
     74 H74       -81.5914   30.1944  -71.7035 H         1 UNK         0.0685 
     75 H75       -80.8569   31.7606  -71.8195 H         1 UNK         0.0685 
     76 H76       -80.1972   28.1791  -71.3742 H         1 UNK         0.1434 
     77 H77       -76.0478   28.7245  -70.4786 H         1 UNK         0.1329 
     78 H78       -78.3727   32.0162  -71.9530 H         1 UNK         0.1335 
     79 H79       -76.1665   32.4198  -71.1213 H         1 UNK         0.0680 
     80 H80       -75.3226   31.2136  -70.1922 H         1 UNK         0.0680 
     81 H81       -73.7267   29.6833  -70.9133 H         1 UNK         0.1032 
     82 H82       -74.3441   28.7592  -72.2613 H         1 UNK         0.1032 
     83 H83       -71.9198   30.6001  -72.4396 H         1 UNK         0.0461 
     84 H84       -70.0185   27.1897  -72.1240 H         1 UNK         0.3453 
     85 H85       -70.5611   27.9044  -73.6224 H         1 UNK         0.3453 
     86 H86       -73.0971   28.6886  -74.3844 H         1 UNK         0.2984 
     87 H87       -72.8273   29.8801  -76.7786 H         1 UNK         0.0554 
     88 H88       -70.9484   29.7455  -78.4231 H         1 UNK         0.0847 
     89 H89       -69.7787   29.8101  -77.1055 H         1 UNK         0.0847 
     90 H90       -70.8253   31.1850  -77.4255 H         1 UNK         0.0847 
     91 H91       -72.7420   27.6851  -76.9442 H         1 UNK         0.3141 
     92 H92       -70.3923   25.2489  -76.7816 H         1 UNK         0.0743 
     93 H93       -70.4086   25.1392  -74.3113 H         1 UNK         0.0784 
     94 H94       -72.1369   25.4466  -74.2708 H         1 UNK         0.0784 
     95 H95       -71.5185   23.9423  -74.9555 H         1 UNK         0.0784 
     96 H96       -73.2471   25.0100  -76.4902 H         1 UNK         0.3213 
     97 H97       -74.0457   25.9019  -79.8470 H         1 UNK         0.0855 
     98 H98       -74.1763   23.1909  -78.4214 H         1 UNK         0.0814 
     99 H99       -73.3984   23.4850  -79.9718 H         1 UNK         0.0814 
    100 H100      -75.1364   23.6810  -79.8171 H         1 UNK         0.0814 
    101 H101      -75.6999   25.0398  -77.7071 H         1 UNK         0.3105 
    102 H102      -76.2978   28.3544  -76.3414 H         1 UNK         0.0547 
    103 H103      -78.5818   27.4677  -76.6886 H         1 UNK         0.0837 
    104 H104      -77.8408   27.8568  -78.2333 H         1 UNK         0.0837 
    105 H105      -77.9604   26.1808  -77.7166 H         1 UNK         0.0837 
    106 H106      -77.1029   25.7887  -75.3888 H         1 UNK         0.3020 
    107 H107      -74.2857   25.1717  -73.3480 H         1 UNK         0.1245 
    108 H108      -75.5504   26.8049  -71.8959 H         1 UNK         0.0781 
    109 H109      -75.5543   25.1468  -71.3863 H         1 UNK         0.0781 
    110 H110      -77.2123   26.6366  -69.8369 H         1 UNK         0.0836 
    111 H111      -78.9327   26.4893  -70.0766 H         1 UNK         0.0836 
    112 H112      -76.8301   23.8675  -73.6613 H         1 UNK         0.3022 
    113 H113      -75.5048   21.5808  -76.1389 H         1 UNK         0.0747 
    114 H114      -76.5723   20.1026  -74.4836 H         1 UNK         0.0793 
    115 H115      -75.1590   20.8522  -73.7628 H         1 UNK         0.0793 
    116 H116      -76.7646   21.4347  -73.3453 H         1 UNK         0.0793 
    117 H117      -78.1976   21.9174  -75.3419 H         1 UNK         0.3047 
    118 H118      -79.2313   24.0745  -77.9796 H         1 UNK         0.0822 
    119 H119      -78.9334   21.8372  -79.0657 H         1 UNK         0.0807 
    120 H120      -80.6052   22.1276  -78.6199 H         1 UNK         0.0807 
    121 H121      -79.6048   21.0511  -77.6436 H         1 UNK         0.0807 
    122 H122      -80.9004   22.7489  -76.2429 H         1 UNK         0.2946 
    123 H123      -82.1040   24.0121  -74.8682 H         1 UNK         0.1144 
    124 H124      -80.7499   22.6222  -73.2782 H         1 UNK         0.0793 
    125 H125      -81.8271   23.7041  -72.4121 H         1 UNK         0.0793 
    126 H126      -80.1088   24.0781  -72.5330 H         1 UNK         0.0793 
    127 H127      -81.3886   26.1303  -73.1086 H         1 UNK         0.2896 
@<TRIPOS>BOND
     1    1    2 1    
     2    1   67 1    
     3    1   68 1    
     4    1   69 1    
     5    2    3 2    
     6    2    4 am   BACKBONE|DICT|INTERRES
     7    4    5 1    
     8    4   70 1    
     9    5    6 1    
    10    5   65 1    
    11    5   71 1    
    12    6    7 1    
    13    6   72 1    
    14    6   73 1    
    15    7    8 1    
    16    8    9 1    
    17    8   74 1    
    18    8   75 1    
    19    9   10 ar   
    20    9   14 ar   
    21   10   11 ar   
    22   10   76 1    
    23   11   12 ar   
    24   11   48 1    
    25   12   13 ar   
    26   12   77 1    
    27   13   14 ar   
    28   13   15 1    
    29   14   78 1    
    30   15   16 1    
    31   15   79 1    
    32   15   80 1    
    33   16   17 1    
    34   17   18 1    
    35   17   81 1    
    36   17   82 1    
    37   18   19 1    
    38   18   22 1    
    39   18   83 1    
    40   19   20 am   BACKBONE|DICT|INTERRES
    41   19   21 2    
    42   20   84 1    
    43   20   85 1    
    44   22   23 am   BACKBONE|DICT|INTERRES
    45   22   86 1    
    46   23   24 2    
    47   23   25 1    
    48   25   26 1    
    49   25   27 1    
    50   25   87 1    
    51   26   88 1    
    52   26   89 1    
    53   26   90 1    
    54   27   28 am   BACKBONE|DICT|INTERRES
    55   27   91 1    
    56   28   29 2    
    57   28   30 1    
    58   30   31 1    
    59   30   32 1    
    60   30   92 1    
    61   31   93 1    
    62   31   94 1    
    63   31   95 1    
    64   32   33 am   BACKBONE|DICT|INTERRES
    65   32   96 1    
    66   33   34 2    
    67   33   35 1    
    68   35   36 1    
    69   35   37 1    
    70   35   97 1    
    71   36   98 1    
    72   36   99 1    
    73   36  100 1    
    74   37   38 am   BACKBONE|DICT|INTERRES
    75   37  101 1    
    76   38   39 2    
    77   38   40 1    
    78   40   41 1    
    79   40   42 1    
    80   40  102 1    
    81   41  103 1    
    82   41  104 1    
    83   41  105 1    
    84   42   43 am   BACKBONE|DICT|INTERRES
    85   42  106 1    
    86   43   44 2    
    87   43   45 1    
    88   45   46 1    
    89   45   49 1    
    90   45  107 1    
    91   46   47 1    
    92   46  108 1    
    93   46  109 1    
    94   47   48 1    
    95   48  110 1    
    96   48  111 1    
    97   49   50 am   BACKBONE|DICT|INTERRES
    98   49  112 1    
    99   50   51 2    
   100   50   52 1    
   101   52   53 1    
   102   52   54 1    
   103   52  113 1    
   104   53  114 1    
   105   53  115 1    
   106   53  116 1    
   107   54   55 am   BACKBONE|DICT|INTERRES
   108   54  117 1    
   109   55   56 2    
   110   55   57 1    
   111   57   58 1    
   112   57   59 1    
   113   57  118 1    
   114   58  119 1    
   115   58  120 1    
   116   58  121 1    
   117   59   60 am   BACKBONE|DICT|INTERRES
   118   59  122 1    
   119   60   61 2    
   120   60   62 1    
   121   62   63 1    
   122   62   64 1    
   123   62  123 1    
   124   63  124 1    
   125   63  125 1    
   126   63  126 1    
   127   64   65 am   BACKBONE|DICT|INTERRES
   128   64  127 1    
   129   65   66 2    
@<TRIPOS>SUBSTRUCTURE
     1 UNK         1 GROUP             0       ****    0 ROOT    
