@<TRIPOS>MOLECULE
3R135
127   129    1
SMALL
USER_CHARGES


@<TRIPOS>ATOM
      1 CA        -80.8696   22.1509  -70.0472 C.3       0 UNK        -0.1998 
      2 C         -81.5580   23.3061  -70.7592 C.2       0 UNK         0.4909 
      3 O         -82.7646   23.2449  -70.9999 O.2       0 UNK        -0.5240 
      4 N         -80.8010   24.3605  -71.0886 N.am      1 UNK        -0.4739 
      5 CA        -81.2727   25.5220  -71.8517 C.3       1 UNK         0.0864 
      6 C6        -80.3886   26.7666  -71.5764 C.3       11 UNK        -0.0881 
      7 S7        -81.3440   28.3172  -71.6475 S.3       11 UNK        -0.2682 
      8 C8        -80.2203   29.4546  -70.7773 C.3       11 UNK         0.0289 
      9 C9        -78.9166   29.6520  -71.5373 C.ar      11 UNK        -0.0687 
     10 C10       -78.9147   30.3515  -72.7473 C.ar      11 UNK        -0.0823 
     11 C11       -77.7265   30.5449  -73.4575 C.ar      11 UNK        -0.0830 
     12 C12       -76.5296   30.0433  -72.9368 C.ar      11 UNK        -0.1021 
     13 C13       -76.5191   29.3379  -71.7303 C.ar      11 UNK        -0.0753 
     14 C14       -77.7152   29.1432  -71.0335 C.ar      11 UNK        -0.0933 
     15 C15       -75.2092   28.7913  -71.1899 C.3       11 UNK         0.0166 
     16 S16       -74.2714   30.0954  -70.3370 S.3       11 UNK        -0.2615 
     17 C17       -72.5648   29.4677  -70.4883 C.3       11 UNK        -0.0865 
     18 CA        -71.7822   30.1804  -71.6220 C.3       10 UNK         0.0862 
     19 C         -70.2792   29.7928  -71.5801 C.2       10 UNK         0.5551 
     20 N         -69.4690   30.5377  -70.8410 N.am      10 UNK        -0.7319 
     21 O         -69.8520   28.8039  -72.1733 O.2       10 UNK        -0.5018 
     22 N         -72.3796   29.9075  -72.9353 N.am      10 UNK        -0.4509 
     23 C         -72.1240   30.5783  -74.0618 C.2       10 UNK         0.4899 
     24 O         -71.4238   31.5908  -74.1158 O.2       10 UNK        -0.4839 
     25 CA        -72.7405   29.9874  -75.3448 C.3       9 UNK         0.0222 
     26 CB        -72.5797   30.9124  -76.5650 C.3       9 UNK        -0.1966 
     27 N         -72.1625   28.6762  -75.6556 N.am      9 UNK        -0.4218 
     28 C         -72.4821   27.5331  -75.0365 C.2       9 UNK         0.5020 
     29 O         -73.3177   27.4604  -74.1337 O.2       9 UNK        -0.5274 
     30 CA        -71.7253   26.2736  -75.4677 C.3       8 UNK         0.0270 
     31 CB        -71.0156   25.6128  -74.2703 C.3       8 UNK        -0.1976 
     32 N         -72.6641   25.3394  -76.0838 N.am      8 UNK        -0.4313 
     33 C         -72.3246   24.3909  -76.9667 C.2       8 UNK         0.5041 
     34 O         -71.1650   24.1702  -77.3208 O.2       8 UNK        -0.5577 
     35 CA        -73.4629   23.5592  -77.5846 C.3       7 UNK         0.0284 
     36 CB        -73.9978   22.5165  -76.5893 C.3       7 UNK        -0.1958 
     37 N         -74.5590   24.3950  -78.0778 N.am      7 UNK        -0.4454 
     38 C         -74.4709   25.2182  -79.1335 C.2       7 UNK         0.5089 
     39 O         -73.4814   25.2995  -79.8620 O.2       7 UNK        -0.5125 
     40 CA        -75.6847   26.1203  -79.4167 C.3       6 UNK         0.0408 
     41 CB        -76.6888   25.4224  -80.3482 C.3       6 UNK        -0.1791 
     42 N         -76.3530   26.5447  -78.1844 N.am      6 UNK        -0.4762 
     43 C         -75.8402   27.4414  -77.3274 C.2       6 UNK         0.5007 
     44 O         -74.7922   28.0514  -77.5360 O.2       6 UNK        -0.5032 
     45 CA        -76.6132   27.6757  -76.0112 C.3       5 UNK         0.0783 
     46 C46       -77.6546   28.8129  -76.1707 C.3       11 UNK        -0.0857 
     47 S47       -76.8661   30.4614  -76.1309 S.3       11 UNK        -0.2512 
     48 C48       -77.7516   31.3065  -74.7782 C.3       11 UNK         0.0225 
     49 N         -77.2268   26.4399  -75.5106 N.am      5 UNK        -0.4615 
     50 C         -76.5319   25.3838  -75.0566 C.2       4 UNK         0.5053 
     51 O         -75.3060   25.3570  -74.9840 O.2       4 UNK        -0.5105 
     52 CA        -77.3170   24.1111  -74.6871 C.3       4 UNK         0.0263 
     53 CB        -77.6910   24.1207  -73.1981 C.3       4 UNK        -0.1981 
     54 N         -78.5147   23.9180  -75.5086 N.am      4 UNK        -0.4224 
     55 C         -78.4878   23.7791  -76.8436 C.2       3 UNK         0.4895 
     56 O         -77.4430   23.6792  -77.4873 O.2       3 UNK        -0.5091 
     57 CA        -79.8246   23.8156  -77.6074 C.3       3 UNK         0.0250 
     58 CB        -80.2305   22.3983  -78.0409 C.3       3 UNK        -0.1996 
     59 N         -80.9359   24.4319  -76.8756 N.am      3 UNK        -0.4254 
     60 C         -80.9733   25.6811  -76.3873 C.2       2 UNK         0.5004 
     61 O         -80.0535   26.4926  -76.5060 O.2       2 UNK        -0.5226 
     62 CA        -82.2227   26.0729  -75.5731 C.3       2 UNK         0.0269 
     63 CB        -83.4488   25.1698  -75.8383 C.3       2 UNK        -0.1926 
     64 N         -81.9552   26.1366  -74.1290 N.am      2 UNK        -0.4687 
     65 C         -81.3781   25.1992  -73.3610 C.2       1 UNK         0.5165 
     66 O         -80.9275   24.1367  -73.8009 O.2       1 UNK        -0.5079 
     67 H67       -80.9644   21.2390  -70.6361 H         1 UNK         0.0900 
     68 H68       -81.3319   21.9795  -69.0755 H         1 UNK         0.0900 
     69 H69       -79.8085   22.3430  -69.8891 H         1 UNK         0.0900 
     70 H70       -79.8122   24.3383  -70.8872 H         1 UNK         0.2959 
     71 H71       -82.2873   25.7349  -71.5058 H         1 UNK         0.1079 
     72 H72       -79.9560   26.7047  -70.5762 H         1 UNK         0.0837 
     73 H73       -79.5424   26.8333  -72.2628 H         1 UNK         0.0837 
     74 H74       -80.7160   30.4192  -70.6591 H         1 UNK         0.0685 
     75 H75       -80.0342   29.0809  -69.7692 H         1 UNK         0.0685 
     76 H76       -79.8467   30.7393  -73.1359 H         1 UNK         0.1434 
     77 H77       -75.6032   30.1981  -73.4722 H         1 UNK         0.1329 
     78 H78       -77.7089   28.6010  -70.0979 H         1 UNK         0.1335 
     79 H79       -75.3866   27.9635  -70.5016 H         1 UNK         0.0680 
     80 H80       -74.6263   28.3838  -72.0157 H         1 UNK         0.0680 
     81 H81       -72.0744   29.6342  -69.5270 H         1 UNK         0.1032 
     82 H82       -72.5713   28.3860  -70.6369 H         1 UNK         0.1032 
     83 H83       -71.8510   31.2573  -71.4533 H         1 UNK         0.0461 
     84 H84       -69.8111   31.3455  -70.3437 H         1 UNK         0.3453 
     85 H85       -68.4922   30.2940  -70.7876 H         1 UNK         0.3453 
     86 H86       -72.8909   29.0356  -73.0269 H         1 UNK         0.2984 
     87 H87       -73.8114   29.8645  -75.1692 H         1 UNK         0.0554 
     88 H88       -71.5316   31.0708  -76.8217 H         1 UNK         0.0847 
     89 H89       -73.0215   31.8909  -76.3721 H         1 UNK         0.0847 
     90 H90       -73.0835   30.5000  -77.4397 H         1 UNK         0.0847 
     91 H91       -71.4500   28.6591  -76.3709 H         1 UNK         0.3141 
     92 H92       -70.9705   26.5575  -76.2045 H         1 UNK         0.0743 
     93 H93       -71.7306   25.2579  -73.5268 H         1 UNK         0.0784 
     94 H94       -70.4098   24.7629  -74.5846 H         1 UNK         0.0784 
     95 H95       -70.3506   26.3201  -73.7725 H         1 UNK         0.0784 
     96 H96       -73.6390   25.4446  -75.7980 H         1 UNK         0.3213 
     97 H97       -73.0514   23.0192  -78.4404 H         1 UNK         0.0855 
     98 H98       -74.3771   22.9774  -75.6781 H         1 UNK         0.0814 
     99 H99       -73.2081   21.8243  -76.2948 H         1 UNK         0.0814 
    100 H100      -74.8026   21.9249  -77.0263 H         1 UNK         0.0814 
    101 H101      -75.4411   24.3478  -77.5804 H         1 UNK         0.3105 
    102 H102      -75.3218   27.0134  -79.9303 H         1 UNK         0.0547 
    103 H103      -76.2195   25.1694  -81.2998 H         1 UNK         0.0837 
    104 H104      -77.0696   24.4947  -79.9220 H         1 UNK         0.0837 
    105 H105      -77.5403   26.0658  -80.5695 H         1 UNK         0.0837 
    106 H106      -77.1982   26.0538  -77.9277 H         1 UNK         0.3020 
    107 H107      -75.8793   27.9815  -75.2606 H         1 UNK         0.1245 
    108 H108      -78.3946   28.7542  -75.3715 H         1 UNK         0.0781 
    109 H109      -78.2237   28.7082  -77.0967 H         1 UNK         0.0781 
    110 H110      -78.7783   31.4850  -75.1019 H         1 UNK         0.0836 
    111 H111      -77.3030   32.2888  -74.6251 H         1 UNK         0.0836 
    112 H112      -78.2349   26.3705  -75.6079 H         1 UNK         0.3022 
    113 H113      -76.6626   23.2555  -74.8636 H         1 UNK         0.0747 
    114 H114      -78.2311   23.2164  -72.9165 H         1 UNK         0.0793 
    115 H115      -76.7980   24.1756  -72.5740 H         1 UNK         0.0793 
    116 H116      -78.3139   24.9777  -72.9491 H         1 UNK         0.0793 
    117 H117      -79.4132   23.9765  -75.0358 H         1 UNK         0.3047 
    118 H118      -79.6587   24.4140  -78.5055 H         1 UNK         0.0822 
    119 H119      -81.1176   22.4143  -78.6744 H         1 UNK         0.0807 
    120 H120      -80.4401   21.7589  -77.1824 H         1 UNK         0.0807 
    121 H121      -79.4342   21.9222  -78.6153 H         1 UNK         0.0807 
    122 H122      -81.7253   23.8336  -76.6792 H         1 UNK         0.2946 
    123 H123      -82.4808   27.0841  -75.8927 H         1 UNK         0.1144 
    124 H124      -84.3376   25.5710  -75.3511 H         1 UNK         0.0793 
    125 H125      -83.3057   24.1546  -75.4659 H         1 UNK         0.0793 
    126 H126      -83.6734   25.1083  -76.9042 H         1 UNK         0.0793 
    127 H127      -82.2232   27.0019  -73.6776 H         1 UNK         0.2896 
@<TRIPOS>BOND
     1    1    2 1    
     2    1   67 1    
     3    1   68 1    
     4    1   69 1    
     5    2    3 2    
     6    2    4 am   BACKBONE|DICT|INTERRES
     7    4    5 1    
     8    4   70 1    
     9    5    6 1    
    10    5   65 1    
    11    5   71 1    
    12    6    7 1    
    13    6   72 1    
    14    6   73 1    
    15    7    8 1    
    16    8    9 1    
    17    8   74 1    
    18    8   75 1    
    19    9   10 ar   
    20    9   14 ar   
    21   10   11 ar   
    22   10   76 1    
    23   11   12 ar   
    24   11   48 1    
    25   12   13 ar   
    26   12   77 1    
    27   13   14 ar   
    28   13   15 1    
    29   14   78 1    
    30   15   16 1    
    31   15   79 1    
    32   15   80 1    
    33   16   17 1    
    34   17   18 1    
    35   17   81 1    
    36   17   82 1    
    37   18   19 1    
    38   18   22 1    
    39   18   83 1    
    40   19   20 am   BACKBONE|DICT|INTERRES
    41   19   21 2    
    42   20   84 1    
    43   20   85 1    
    44   22   23 am   BACKBONE|DICT|INTERRES
    45   22   86 1    
    46   23   24 2    
    47   23   25 1    
    48   25   26 1    
    49   25   27 1    
    50   25   87 1    
    51   26   88 1    
    52   26   89 1    
    53   26   90 1    
    54   27   28 am   BACKBONE|DICT|INTERRES
    55   27   91 1    
    56   28   29 2    
    57   28   30 1    
    58   30   31 1    
    59   30   32 1    
    60   30   92 1    
    61   31   93 1    
    62   31   94 1    
    63   31   95 1    
    64   32   33 am   BACKBONE|DICT|INTERRES
    65   32   96 1    
    66   33   34 2    
    67   33   35 1    
    68   35   36 1    
    69   35   37 1    
    70   35   97 1    
    71   36   98 1    
    72   36   99 1    
    73   36  100 1    
    74   37   38 am   BACKBONE|DICT|INTERRES
    75   37  101 1    
    76   38   39 2    
    77   38   40 1    
    78   40   41 1    
    79   40   42 1    
    80   40  102 1    
    81   41  103 1    
    82   41  104 1    
    83   41  105 1    
    84   42   43 am   BACKBONE|DICT|INTERRES
    85   42  106 1    
    86   43   44 2    
    87   43   45 1    
    88   45   46 1    
    89   45   49 1    
    90   45  107 1    
    91   46   47 1    
    92   46  108 1    
    93   46  109 1    
    94   47   48 1    
    95   48  110 1    
    96   48  111 1    
    97   49   50 am   BACKBONE|DICT|INTERRES
    98   49  112 1    
    99   50   51 2    
   100   50   52 1    
   101   52   53 1    
   102   52   54 1    
   103   52  113 1    
   104   53  114 1    
   105   53  115 1    
   106   53  116 1    
   107   54   55 am   BACKBONE|DICT|INTERRES
   108   54  117 1    
   109   55   56 2    
   110   55   57 1    
   111   57   58 1    
   112   57   59 1    
   113   57  118 1    
   114   58  119 1    
   115   58  120 1    
   116   58  121 1    
   117   59   60 am   BACKBONE|DICT|INTERRES
   118   59  122 1    
   119   60   61 2    
   120   60   62 1    
   121   62   63 1    
   122   62   64 1    
   123   62  123 1    
   124   63  124 1    
   125   63  125 1    
   126   63  126 1    
   127   64   65 am   BACKBONE|DICT|INTERRES
   128   64  127 1    
   129   65   66 2    
@<TRIPOS>SUBSTRUCTURE
     1 UNK         1 GROUP             0       ****    0 ROOT    
