@<TRIPOS>MOLECULE
3R135
127   129    1
SMALL
USER_CHARGES


@<TRIPOS>ATOM
      1 CA        -83.6871   23.4125  -72.9136 C.3       0 UNK        -0.1998 
      2 C         -83.1135   24.7637  -73.3099 C.2       0 UNK         0.4909 
      3 O         -83.2550   25.1778  -74.4607 O.2       0 UNK        -0.5240 
      4 N         -82.4674   25.4615  -72.3669 N.am      1 UNK        -0.4739 
      5 CA        -81.8603   26.7775  -72.5897 C.3       1 UNK         0.0864 
      6 C6        -81.5158   27.4792  -71.2540 C.3       11 UNK        -0.0881 
      7 S7        -81.5141   29.2984  -71.4213 S.3       11 UNK        -0.2682 
      8 C8        -80.0978   29.7876  -70.3869 C.3       11 UNK         0.0289 
      9 C9        -78.7691   29.3919  -71.0127 C.ar      11 UNK        -0.0687 
     10 C10       -78.0882   28.2608  -70.5564 C.ar      11 UNK        -0.0823 
     11 C11       -76.8790   27.8822  -71.1401 C.ar      11 UNK        -0.0830 
     12 C12       -76.3403   28.6558  -72.1709 C.ar      11 UNK        -0.1021 
     13 C13       -76.9984   29.8027  -72.6316 C.ar      11 UNK        -0.0753 
     14 C14       -78.2176   30.1587  -72.0446 C.ar      11 UNK        -0.0933 
     15 C15       -76.4568   30.6697  -73.7718 C.3       11 UNK         0.0166 
     16 S16       -74.7646   30.2878  -74.3485 S.3       11 UNK        -0.2615 
     17 C17       -73.7418   30.9738  -72.9945 C.3       11 UNK        -0.0865 
     18 CA        -72.4349   30.1761  -72.7222 C.3       10 UNK         0.0862 
     19 C         -72.6824   28.8593  -71.9359 C.2       10 UNK         0.5551 
     20 N         -72.4631   27.6800  -72.5032 N.am      10 UNK        -0.7319 
     21 O         -73.0535   28.9109  -70.7662 O.2       10 UNK        -0.5018 
     22 N         -71.6100   30.0215  -73.9307 N.am      10 UNK        -0.4509 
     23 C         -70.7481   30.9379  -74.3926 C.2       10 UNK         0.4899 
     24 O         -70.5072   32.0006  -73.8183 O.2       10 UNK        -0.4839 
     25 CA        -70.0275   30.6386  -75.7237 C.3       9 UNK         0.0222 
     26 CB        -68.6199   30.0813  -75.4570 C.3       9 UNK        -0.1966 
     27 N         -70.7610   29.7009  -76.5750 N.am      9 UNK        -0.4218 
     28 C         -71.9367   29.9549  -77.1645 C.2       9 UNK         0.5020 
     29 O         -72.4316   31.0815  -77.2269 O.2       9 UNK        -0.5274 
     30 CA        -72.7079   28.7654  -77.7768 C.3       8 UNK         0.0270 
     31 CB        -72.8523   28.9396  -79.2986 C.3       8 UNK        -0.1976 
     32 N         -72.1754   27.4203  -77.5098 N.am      8 UNK        -0.4313 
     33 C         -71.9613   26.8522  -76.3158 C.2       8 UNK         0.5041 
     34 O         -72.0797   27.4447  -75.2415 O.2       8 UNK        -0.5577 
     35 CA        -71.5517   25.3680  -76.3346 C.3       7 UNK         0.0284 
     36 CB        -70.8460   24.9450  -75.0329 C.3       7 UNK        -0.1958 
     37 N         -72.7273   24.5218  -76.5340 N.am      7 UNK        -0.4454 
     38 C         -73.4032   24.3868  -77.6833 C.2       7 UNK         0.5089 
     39 O         -73.0150   24.8496  -78.7575 O.2       7 UNK        -0.5125 
     40 CA        -74.7448   23.6278  -77.6280 C.3       6 UNK         0.0408 
     41 CB        -74.5753   22.1984  -78.1658 C.3       6 UNK        -0.1791 
     42 N         -75.3599   23.5694  -76.2950 N.am      6 UNK        -0.4762 
     43 C         -75.7655   24.6263  -75.5755 C.2       6 UNK         0.5007 
     44 O         -75.6645   25.7910  -75.9612 O.2       6 UNK        -0.5032 
     45 CA        -76.3800   24.3199  -74.1947 C.3       5 UNK         0.0783 
     46 C46       -76.2941   25.5403  -73.2517 C.3       11 UNK        -0.0857 
     47 S47       -76.7830   25.1481  -71.5406 S.3       11 UNK        -0.2512 
     48 C48       -76.1630   26.6241  -70.6731 C.3       11 UNK         0.0225 
     49 N         -77.7586   23.8550  -74.3517 N.am      5 UNK        -0.4615 
     50 C         -78.1131   22.6246  -74.7410 C.2       4 UNK         0.5053 
     51 O         -77.3071   21.7235  -74.9776 O.2       4 UNK        -0.5105 
     52 CA        -79.6150   22.3629  -74.9102 C.3       4 UNK         0.0263 
     53 CB        -80.2868   22.1419  -73.5456 C.3       4 UNK        -0.1981 
     54 N         -80.2633   23.4688  -75.6180 N.am      4 UNK        -0.4224 
     55 C         -80.3040   23.5848  -76.9543 C.2       3 UNK         0.4895 
     56 O         -79.8846   22.7237  -77.7283 O.2       3 UNK        -0.5091 
     57 CA        -80.9056   24.8766  -77.5367 C.3       3 UNK         0.0250 
     58 CB        -82.4007   24.6927  -77.8417 C.3       3 UNK        -0.1996 
     59 N         -80.7155   26.0299  -76.6532 N.am      3 UNK        -0.4254 
     60 C         -79.5499   26.6826  -76.5203 C.2       2 UNK         0.5004 
     61 O         -78.5656   26.4495  -77.2197 O.2       2 UNK        -0.5226 
     62 CA        -79.4508   27.7728  -75.4331 C.3       2 UNK         0.0269 
     63 CB        -79.4880   29.1721  -76.0679 C.3       2 UNK        -0.1926 
     64 N         -80.4899   27.6957  -74.4012 N.am      2 UNK        -0.4687 
     65 C         -80.6487   26.6806  -73.5426 C.2       1 UNK         0.5165 
     66 O         -79.9178   25.6856  -73.5227 O.2       1 UNK        -0.5079 
     67 H67       -84.7492   23.5087  -72.6904 H         1 UNK         0.0900 
     68 H68       -83.5769   22.7004  -73.7307 H         1 UNK         0.0900 
     69 H69       -83.1862   23.0033  -72.0365 H         1 UNK         0.0900 
     70 H70       -82.3459   25.0653  -71.4459 H         1 UNK         0.2959 
     71 H71       -82.6269   27.3730  -73.0921 H         1 UNK         0.1079 
     72 H72       -80.5712   27.1126  -70.8520 H         1 UNK         0.0837 
     73 H73       -82.2682   27.2417  -70.5001 H         1 UNK         0.0837 
     74 H74       -80.1226   30.8693  -70.2467 H         1 UNK         0.0685 
     75 H75       -80.2061   29.3500  -69.3932 H         1 UNK         0.0685 
     76 H76       -78.5063   27.6620  -69.7588 H         1 UNK         0.1434 
     77 H77       -75.4127   28.3385  -72.6217 H         1 UNK         0.1329 
     78 H78       -78.7475   31.0331  -72.3975 H         1 UNK         0.1335 
     79 H79       -77.1266   30.5643  -74.6253 H         1 UNK         0.0680 
     80 H80       -76.4951   31.7202  -73.4793 H         1 UNK         0.0680 
     81 H81       -73.4879   32.0005  -73.2618 H         1 UNK         0.1032 
     82 H82       -74.3379   31.0500  -72.0829 H         1 UNK         0.1032 
     83 H83       -71.8509   30.7749  -72.0203 H         1 UNK         0.0461 
     84 H84       -72.2374   27.6007  -73.4935 H         1 UNK         0.3453 
     85 H85       -72.5984   26.8460  -71.9572 H         1 UNK         0.3453 
     86 H86       -71.7619   29.1667  -74.4594 H         1 UNK         0.2984 
     87 H87       -69.9269   31.5811  -76.2658 H         1 UNK         0.0554 
     88 H88       -68.0359   30.7733  -74.8484 H         1 UNK         0.0847 
     89 H89       -68.0700   29.9270  -76.3856 H         1 UNK         0.0847 
     90 H90       -68.6557   29.1302  -74.9239 H         1 UNK         0.0847 
     91 H91       -70.4491   28.7411  -76.5651 H         1 UNK         0.3141 
     92 H92       -73.7068   28.7954  -77.3364 H         1 UNK         0.0743 
     93 H93       -71.8861   28.8878  -79.8020 H         1 UNK         0.0784 
     94 H94       -73.4975   28.1721  -79.7272 H         1 UNK         0.0784 
     95 H95       -73.2971   29.9049  -79.5449 H         1 UNK         0.0784 
     96 H96       -72.1077   26.8084  -78.3149 H         1 UNK         0.3213 
     97 H97       -70.8553   25.2138  -77.1620 H         1 UNK         0.0855 
     98 H98       -71.5008   25.0381  -74.1654 H         1 UNK         0.0814 
     99 H99       -69.9693   25.5665  -74.8458 H         1 UNK         0.0814 
    100 H100      -70.5041   23.9113  -75.0851 H         1 UNK         0.0814 
    101 H101      -73.1396   24.1216  -75.7048 H         1 UNK         0.3105 
    102 H102      -75.4395   24.1578  -78.2828 H         1 UNK         0.0547 
    103 H103      -74.1517   22.2068  -79.1712 H         1 UNK         0.0837 
    104 H104      -73.9093   21.6065  -77.5368 H         1 UNK         0.0837 
    105 H105      -75.5324   21.6798  -78.2248 H         1 UNK         0.0837 
    106 H106      -75.5599   22.6465  -75.9259 H         1 UNK         0.3020 
    107 H107      -75.7893   23.5177  -73.7458 H         1 UNK         0.1245 
    108 H108      -75.2750   25.9326  -73.2308 H         1 UNK         0.0781 
    109 H109      -76.9317   26.3462  -73.6184 H         1 UNK         0.0781 
    110 H110      -75.0867   26.7171  -70.8271 H         1 UNK         0.0836 
    111 H111      -76.3053   26.4920  -69.5995 H         1 UNK         0.0836 
    112 H112      -78.4846   24.5313  -74.1321 H         1 UNK         0.3022 
    113 H113      -79.7302   21.4445  -75.4903 H         1 UNK         0.0747 
    114 H114      -81.3230   21.8295  -73.6662 H         1 UNK         0.0793 
    115 H115      -79.7795   21.3559  -72.9845 H         1 UNK         0.0793 
    116 H116      -80.2720   23.0421  -72.9301 H         1 UNK         0.0793 
    117 H117      -80.5860   24.2432  -75.0517 H         1 UNK         0.3047 
    118 H118      -80.3964   25.0785  -78.4819 H         1 UNK         0.0822 
    119 H119      -82.8322   25.5942  -78.2769 H         1 UNK         0.0807 
    120 H120      -82.9718   24.4437  -76.9477 H         1 UNK         0.0807 
    121 H121      -82.5529   23.8835  -78.5572 H         1 UNK         0.0807 
    122 H122      -81.4881   26.2789  -76.0503 H         1 UNK         0.2946 
    123 H123      -78.4843   27.6463  -74.9398 H         1 UNK         0.1144 
    124 H124      -79.3791   29.9533  -75.3156 H         1 UNK         0.0793 
    125 H125      -80.4228   29.3481  -76.6016 H         1 UNK         0.0793 
    126 H126      -78.6741   29.2964  -76.7838 H         1 UNK         0.0793 
    127 H127      -81.1237   28.4804  -74.3441 H         1 UNK         0.2896 
@<TRIPOS>BOND
     1    1    2 1    
     2    1   67 1    
     3    1   68 1    
     4    1   69 1    
     5    2    3 2    
     6    2    4 am   BACKBONE|DICT|INTERRES
     7    4    5 1    
     8    4   70 1    
     9    5    6 1    
    10    5   65 1    
    11    5   71 1    
    12    6    7 1    
    13    6   72 1    
    14    6   73 1    
    15    7    8 1    
    16    8    9 1    
    17    8   74 1    
    18    8   75 1    
    19    9   10 ar   
    20    9   14 ar   
    21   10   11 ar   
    22   10   76 1    
    23   11   12 ar   
    24   11   48 1    
    25   12   13 ar   
    26   12   77 1    
    27   13   14 ar   
    28   13   15 1    
    29   14   78 1    
    30   15   16 1    
    31   15   79 1    
    32   15   80 1    
    33   16   17 1    
    34   17   18 1    
    35   17   81 1    
    36   17   82 1    
    37   18   19 1    
    38   18   22 1    
    39   18   83 1    
    40   19   20 am   BACKBONE|DICT|INTERRES
    41   19   21 2    
    42   20   84 1    
    43   20   85 1    
    44   22   23 am   BACKBONE|DICT|INTERRES
    45   22   86 1    
    46   23   24 2    
    47   23   25 1    
    48   25   26 1    
    49   25   27 1    
    50   25   87 1    
    51   26   88 1    
    52   26   89 1    
    53   26   90 1    
    54   27   28 am   BACKBONE|DICT|INTERRES
    55   27   91 1    
    56   28   29 2    
    57   28   30 1    
    58   30   31 1    
    59   30   32 1    
    60   30   92 1    
    61   31   93 1    
    62   31   94 1    
    63   31   95 1    
    64   32   33 am   BACKBONE|DICT|INTERRES
    65   32   96 1    
    66   33   34 2    
    67   33   35 1    
    68   35   36 1    
    69   35   37 1    
    70   35   97 1    
    71   36   98 1    
    72   36   99 1    
    73   36  100 1    
    74   37   38 am   BACKBONE|DICT|INTERRES
    75   37  101 1    
    76   38   39 2    
    77   38   40 1    
    78   40   41 1    
    79   40   42 1    
    80   40  102 1    
    81   41  103 1    
    82   41  104 1    
    83   41  105 1    
    84   42   43 am   BACKBONE|DICT|INTERRES
    85   42  106 1    
    86   43   44 2    
    87   43   45 1    
    88   45   46 1    
    89   45   49 1    
    90   45  107 1    
    91   46   47 1    
    92   46  108 1    
    93   46  109 1    
    94   47   48 1    
    95   48  110 1    
    96   48  111 1    
    97   49   50 am   BACKBONE|DICT|INTERRES
    98   49  112 1    
    99   50   51 2    
   100   50   52 1    
   101   52   53 1    
   102   52   54 1    
   103   52  113 1    
   104   53  114 1    
   105   53  115 1    
   106   53  116 1    
   107   54   55 am   BACKBONE|DICT|INTERRES
   108   54  117 1    
   109   55   56 2    
   110   55   57 1    
   111   57   58 1    
   112   57   59 1    
   113   57  118 1    
   114   58  119 1    
   115   58  120 1    
   116   58  121 1    
   117   59   60 am   BACKBONE|DICT|INTERRES
   118   59  122 1    
   119   60   61 2    
   120   60   62 1    
   121   62   63 1    
   122   62   64 1    
   123   62  123 1    
   124   63  124 1    
   125   63  125 1    
   126   63  126 1    
   127   64   65 am   BACKBONE|DICT|INTERRES
   128   64  127 1    
   129   65   66 2    
@<TRIPOS>SUBSTRUCTURE
     1 UNK         1 GROUP             0       ****    0 ROOT    
