@<TRIPOS>MOLECULE
3R135
127   129    1
SMALL
USER_CHARGES


@<TRIPOS>ATOM
      1 CA        -86.3930   26.8175  -71.3492 C.3       0 UNK        -0.1998 
      2 C         -85.0270   26.4202  -71.8892 C.2       0 UNK         0.4909 
      3 O         -84.9420   25.8504  -72.9782 O.2       0 UNK        -0.5240 
      4 N         -83.9589   26.7236  -71.1406 N.am      1 UNK        -0.4739 
      5 CA        -82.5775   26.3533  -71.4689 C.3       1 UNK         0.0864 
      6 C6        -81.5593   27.3131  -70.7935 C.3       11 UNK        -0.0881 
      7 S7        -80.1121   27.6466  -71.8584 S.3       11 UNK        -0.2682 
      8 C8        -80.5192   29.3275  -72.4225 C.3       11 UNK         0.0289 
      9 C9        -79.4538   29.9056  -73.3417 C.ar      11 UNK        -0.0687 
     10 C10       -79.6907   30.0217  -74.7162 C.ar      11 UNK        -0.0823 
     11 C11       -78.7479   30.6311  -75.5512 C.ar      11 UNK        -0.0830 
     12 C12       -77.5652   31.1285  -74.9943 C.ar      11 UNK        -0.1021 
     13 C13       -77.2966   30.9768  -73.6328 C.ar      11 UNK        -0.0753 
     14 C14       -78.2479   30.3711  -72.8078 C.ar      11 UNK        -0.0933 
     15 C15       -75.9762   31.4757  -73.0671 C.3       11 UNK         0.0166 
     16 S16       -74.5730   30.5239  -73.7301 S.3       11 UNK        -0.2615 
     17 C17       -74.7986   28.9097  -72.9050 C.3       11 UNK        -0.0865 
     18 CA        -73.4424   28.3095  -72.4538 C.3       10 UNK         0.0862 
     19 C         -73.6344   27.0793  -71.5173 C.2       10 UNK         0.5551 
     20 N         -73.0537   25.9172  -71.7947 N.am      10 UNK        -0.7319 
     21 O         -74.3180   27.1873  -70.5025 O.2       10 UNK        -0.5018 
     22 N         -72.5568   28.0636  -73.6029 N.am      10 UNK        -0.4509 
     23 C         -71.2192   28.0424  -73.5385 C.2       10 UNK         0.4899 
     24 O         -70.5804   28.3161  -72.5208 O.2       10 UNK        -0.4839 
     25 CA        -70.4739   27.6313  -74.8250 C.3       9 UNK         0.0222 
     26 CB        -69.0178   27.1940  -74.5596 C.3       9 UNK        -0.1966 
     27 N         -71.1825   26.6089  -75.6061 N.am      9 UNK        -0.4218 
     28 C         -71.5796   25.3952  -75.1876 C.2       9 UNK         0.5020 
     29 O         -71.3623   24.9661  -74.0534 O.2       9 UNK        -0.5274 
     30 CA        -72.3892   24.5225  -76.1660 C.3       8 UNK         0.0270 
     31 CB        -73.6874   24.0282  -75.5080 C.3       8 UNK        -0.1976 
     32 N         -72.7333   25.2383  -77.3960 N.am      8 UNK        -0.4313 
     33 C         -72.0399   25.1832  -78.5411 C.2       8 UNK         0.5041 
     34 O         -71.0842   24.4297  -78.7286 O.2       8 UNK        -0.5577 
     35 CA        -72.4484   26.1684  -79.6530 C.3       7 UNK         0.0284 
     36 CB        -73.3778   25.4904  -80.6722 C.3       7 UNK        -0.1958 
     37 N         -73.0814   27.3874  -79.1356 N.am      7 UNK        -0.4454 
     38 C         -72.4455   28.3151  -78.4037 C.2       7 UNK         0.5089 
     39 O         -71.2462   28.2593  -78.1348 O.2       7 UNK        -0.5125 
     40 CA        -73.2845   29.4647  -77.8193 C.3       6 UNK         0.0408 
     41 CB        -73.1827   30.7128  -78.7085 C.3       6 UNK        -0.1791 
     42 N         -74.6951   29.1260  -77.6223 N.am      6 UNK        -0.4762 
     43 C         -75.1652   28.1924  -76.7856 C.2       6 UNK         0.5007 
     44 O         -74.4317   27.5020  -76.0696 O.2       6 UNK        -0.5032 
     45 CA        -76.7017   27.9883  -76.7490 C.3       5 UNK         0.0783 
     46 C46       -77.4850   28.5615  -77.9709 C.3       11 UNK        -0.0857 
     47 S47       -77.5696   30.3821  -78.0815 S.3       11 UNK        -0.2512 
     48 C48       -79.0216   30.7742  -77.0454 C.3       11 UNK         0.0225 
     49 N         -77.0593   26.5836  -76.5294 N.am      5 UNK        -0.4615 
     50 C         -76.7407   25.5479  -77.3166 C.2       4 UNK         0.5053 
     51 O         -76.0095   25.6439  -78.3034 O.2       4 UNK        -0.5105 
     52 CA        -77.3516   24.1815  -76.9399 C.3       4 UNK         0.0263 
     53 CB        -76.8650   23.0415  -77.8556 C.3       4 UNK        -0.1981 
     54 N         -77.1082   23.8160  -75.5402 N.am      4 UNK        -0.4224 
     55 C         -77.7671   24.3164  -74.4881 C.2       3 UNK         0.4895 
     56 O         -78.6573   25.1659  -74.5795 O.2       3 UNK        -0.5091 
     57 CA        -77.3195   23.8356  -73.1003 C.3       3 UNK         0.0250 
     58 CB        -76.2894   24.8115  -72.5109 C.3       3 UNK        -0.1996 
     59 N         -78.4621   23.7533  -72.1933 N.am      3 UNK        -0.4254 
     60 C         -79.4107   22.8078  -72.2474 C.2       2 UNK         0.5004 
     61 O         -79.3677   21.8247  -72.9877 O.2       2 UNK        -0.5226 
     62 CA        -80.6285   23.0296  -71.3478 C.3       2 UNK         0.0269 
     63 CB        -80.2757   22.7664  -69.8689 C.3       2 UNK        -0.1926 
     64 N         -81.1255   24.3912  -71.5513 N.am      2 UNK        -0.4687 
     65 C         -82.2917   24.8760  -71.1162 C.2       1 UNK         0.5165 
     66 O         -83.0981   24.2203  -70.4498 O.2       1 UNK        -0.5079 
     67 H67       -86.8940   27.4851  -72.0496 H         1 UNK         0.0900 
     68 H68       -86.3195   27.3272  -70.3887 H         1 UNK         0.0900 
     69 H69       -87.0151   25.9328  -71.2166 H         1 UNK         0.0900 
     70 H70       -84.0953   27.1538  -70.2369 H         1 UNK         0.2959 
     71 H71       -82.4746   26.4440  -72.5532 H         1 UNK         0.1079 
     72 H72       -82.0340   28.2669  -70.5571 H         1 UNK         0.0837 
     73 H73       -81.2122   26.9285  -69.8319 H         1 UNK         0.0837 
     74 H74       -81.4883   29.3101  -72.9240 H         1 UNK         0.0685 
     75 H75       -80.6331   29.9810  -71.5561 H         1 UNK         0.0685 
     76 H76       -80.6199   29.6557  -75.1316 H         1 UNK         0.1434 
     77 H77       -76.8321   31.6123  -75.6254 H         1 UNK         0.1329 
     78 H78       -78.0584   30.2692  -71.7479 H         1 UNK         0.1335 
     79 H79       -75.9685   31.4327  -71.9768 H         1 UNK         0.0680 
     80 H80       -75.8477   32.5254  -73.3346 H         1 UNK         0.0680 
     81 H81       -75.3187   28.2301  -73.5818 H         1 UNK         0.1032 
     82 H82       -75.4599   29.0439  -72.0470 H         1 UNK         0.1032 
     83 H83       -72.9620   29.0624  -71.8257 H         1 UNK         0.0461 
     84 H84       -72.4622   25.8000  -72.6101 H         1 UNK         0.3453 
     85 H85       -73.1848   25.1449  -71.1624 H         1 UNK         0.3453 
     86 H86       -73.0180   27.8258  -74.4736 H         1 UNK         0.2984 
     87 H87       -70.4413   28.5238  -75.4512 H         1 UNK         0.0554 
     88 H88       -68.5076   26.9314  -75.4863 H         1 UNK         0.0847 
     89 H89       -68.9700   26.3316  -73.8939 H         1 UNK         0.0847 
     90 H90       -68.4454   27.9969  -74.0936 H         1 UNK         0.0847 
     91 H91       -71.3941   26.8773  -76.5600 H         1 UNK         0.3141 
     92 H92       -71.7744   23.6507  -76.3986 H         1 UNK         0.0743 
     93 H93       -74.3590   24.8570  -75.2832 H         1 UNK         0.0784 
     94 H94       -74.2100   23.3315  -76.1605 H         1 UNK         0.0784 
     95 H95       -73.4879   23.5016  -74.5736 H         1 UNK         0.0784 
     96 H96       -73.5046   25.8934  -77.3275 H         1 UNK         0.3213 
     97 H97       -71.5354   26.4644  -80.1747 H         1 UNK         0.0855 
     98 H98       -74.3081   25.1543  -80.2147 H         1 UNK         0.0814 
     99 H99       -72.8985   24.6137  -81.1100 H         1 UNK         0.0814 
    100 H100      -73.6291   26.1637  -81.4918 H         1 UNK         0.0814 
    101 H101      -74.0764   27.4866  -79.2827 H         1 UNK         0.3105 
    102 H102      -72.8664   29.7083  -76.8400 H         1 UNK         0.0547 
    103 H103      -73.6106   30.5416  -79.6970 H         1 UNK         0.0837 
    104 H104      -73.6990   31.5622  -78.2608 H         1 UNK         0.0837 
    105 H105      -72.1418   31.0072  -78.8502 H         1 UNK         0.0837 
    106 H106      -75.3722   29.6657  -78.1475 H         1 UNK         0.3020 
    107 H107      -77.0351   28.5080  -75.8514 H         1 UNK         0.1245 
    108 H108      -77.0664   28.1805  -78.9044 H         1 UNK         0.0781 
    109 H109      -78.5123   28.1936  -77.9510 H         1 UNK         0.0781 
    110 H110      -79.3189   31.8051  -77.2415 H         1 UNK         0.0836 
    111 H111      -79.8614   30.1491  -77.3528 H         1 UNK         0.0836 
    112 H112      -77.6521   26.3889  -75.7278 H         1 UNK         0.3022 
    113 H113      -78.4302   24.2733  -77.0856 H         1 UNK         0.0747 
    114 H114      -77.3304   22.0918  -77.5913 H         1 UNK         0.0793 
    115 H115      -77.1205   23.2445  -78.8966 H         1 UNK         0.0793 
    116 H116      -75.7839   22.9120  -77.8103 H         1 UNK         0.0793 
    117 H117      -76.3749   23.1421  -75.3762 H         1 UNK         0.3047 
    118 H118      -76.8658   22.8458  -73.1868 H         1 UNK         0.0822 
    119 H119      -75.9519   24.4884  -71.5260 H         1 UNK         0.0807 
    120 H120      -76.6953   25.8195  -72.4109 H         1 UNK         0.0807 
    121 H121      -75.4061   24.8803  -73.1453 H         1 UNK         0.0807 
    122 H122      -78.5818   24.5250  -71.5539 H         1 UNK         0.2946 
    123 H123      -81.4051   22.3262  -71.6573 H         1 UNK         0.1144 
    124 H124      -81.1606   22.7942  -69.2333 H         1 UNK         0.0793 
    125 H125      -79.5662   23.4992  -69.4834 H         1 UNK         0.0793 
    126 H126      -79.8270   21.7798  -69.7452 H         1 UNK         0.0793 
    127 H127      -80.5428   24.9902  -72.1236 H         1 UNK         0.2896 
@<TRIPOS>BOND
     1    1    2 1    
     2    1   67 1    
     3    1   68 1    
     4    1   69 1    
     5    2    3 2    
     6    2    4 am   BACKBONE|DICT|INTERRES
     7    4    5 1    
     8    4   70 1    
     9    5    6 1    
    10    5   65 1    
    11    5   71 1    
    12    6    7 1    
    13    6   72 1    
    14    6   73 1    
    15    7    8 1    
    16    8    9 1    
    17    8   74 1    
    18    8   75 1    
    19    9   10 ar   
    20    9   14 ar   
    21   10   11 ar   
    22   10   76 1    
    23   11   12 ar   
    24   11   48 1    
    25   12   13 ar   
    26   12   77 1    
    27   13   14 ar   
    28   13   15 1    
    29   14   78 1    
    30   15   16 1    
    31   15   79 1    
    32   15   80 1    
    33   16   17 1    
    34   17   18 1    
    35   17   81 1    
    36   17   82 1    
    37   18   19 1    
    38   18   22 1    
    39   18   83 1    
    40   19   20 am   BACKBONE|DICT|INTERRES
    41   19   21 2    
    42   20   84 1    
    43   20   85 1    
    44   22   23 am   BACKBONE|DICT|INTERRES
    45   22   86 1    
    46   23   24 2    
    47   23   25 1    
    48   25   26 1    
    49   25   27 1    
    50   25   87 1    
    51   26   88 1    
    52   26   89 1    
    53   26   90 1    
    54   27   28 am   BACKBONE|DICT|INTERRES
    55   27   91 1    
    56   28   29 2    
    57   28   30 1    
    58   30   31 1    
    59   30   32 1    
    60   30   92 1    
    61   31   93 1    
    62   31   94 1    
    63   31   95 1    
    64   32   33 am   BACKBONE|DICT|INTERRES
    65   32   96 1    
    66   33   34 2    
    67   33   35 1    
    68   35   36 1    
    69   35   37 1    
    70   35   97 1    
    71   36   98 1    
    72   36   99 1    
    73   36  100 1    
    74   37   38 am   BACKBONE|DICT|INTERRES
    75   37  101 1    
    76   38   39 2    
    77   38   40 1    
    78   40   41 1    
    79   40   42 1    
    80   40  102 1    
    81   41  103 1    
    82   41  104 1    
    83   41  105 1    
    84   42   43 am   BACKBONE|DICT|INTERRES
    85   42  106 1    
    86   43   44 2    
    87   43   45 1    
    88   45   46 1    
    89   45   49 1    
    90   45  107 1    
    91   46   47 1    
    92   46  108 1    
    93   46  109 1    
    94   47   48 1    
    95   48  110 1    
    96   48  111 1    
    97   49   50 am   BACKBONE|DICT|INTERRES
    98   49  112 1    
    99   50   51 2    
   100   50   52 1    
   101   52   53 1    
   102   52   54 1    
   103   52  113 1    
   104   53  114 1    
   105   53  115 1    
   106   53  116 1    
   107   54   55 am   BACKBONE|DICT|INTERRES
   108   54  117 1    
   109   55   56 2    
   110   55   57 1    
   111   57   58 1    
   112   57   59 1    
   113   57  118 1    
   114   58  119 1    
   115   58  120 1    
   116   58  121 1    
   117   59   60 am   BACKBONE|DICT|INTERRES
   118   59  122 1    
   119   60   61 2    
   120   60   62 1    
   121   62   63 1    
   122   62   64 1    
   123   62  123 1    
   124   63  124 1    
   125   63  125 1    
   126   63  126 1    
   127   64   65 am   BACKBONE|DICT|INTERRES
   128   64  127 1    
   129   65   66 2    
@<TRIPOS>SUBSTRUCTURE
     1 UNK         1 GROUP             0       ****    0 ROOT    
