@<TRIPOS>MOLECULE
3R135
127   129    1
SMALL
USER_CHARGES


@<TRIPOS>ATOM
      1 CA        -79.3510   27.8918  -70.2688 C.3       0 UNK        -0.1998 
      2 C         -80.3484   28.2278  -71.3642 C.2       0 UNK         0.4909 
      3 O         -81.5482   28.3015  -71.0961 O.2       0 UNK        -0.5240 
      4 N         -79.8662   28.4301  -72.5988 N.am      1 UNK        -0.4739 
      5 CA        -80.7071   28.7235  -73.7682 C.3       1 UNK         0.0864 
      6 C6        -79.9337   29.4814  -74.8799 C.3       11 UNK        -0.0881 
      7 S7        -78.7142   28.4841  -75.8070 S.3       11 UNK        -0.2682 
      8 C8        -77.1332   29.2198  -75.2859 C.3       11 UNK         0.0289 
      9 C9        -76.7863   28.8789  -73.8445 C.ar      11 UNK        -0.0687 
     10 C10       -76.6614   27.5442  -73.4480 C.ar      11 UNK        -0.0823 
     11 C11       -76.3362   27.2160  -72.1290 C.ar      11 UNK        -0.0830 
     12 C12       -76.0985   28.2421  -71.2123 C.ar      11 UNK        -0.1021 
     13 C13       -76.2168   29.5807  -71.5950 C.ar      11 UNK        -0.0753 
     14 C14       -76.5709   29.8952  -72.9100 C.ar      11 UNK        -0.0933 
     15 C15       -75.9561   30.6779  -70.5779 C.3       11 UNK         0.0166 
     16 S16       -74.2270   31.2389  -70.6483 S.3       11 UNK        -0.2615 
     17 C17       -74.3338   32.6410  -71.8159 C.3       11 UNK        -0.0865 
     18 CA        -73.2826   32.6214  -72.9556 C.3       10 UNK         0.0862 
     19 C         -71.8227   32.7933  -72.4361 C.2       10 UNK         0.5551 
     20 N         -70.8898   31.8976  -72.7365 N.am      10 UNK        -0.7319 
     21 O         -71.5269   33.7755  -71.7593 O.2       10 UNK        -0.5018 
     22 N         -73.4900   31.5054  -73.8958 N.am      10 UNK        -0.4509 
     23 C         -73.1158   31.5473  -75.1826 C.2       10 UNK         0.4899 
     24 O         -72.6381   32.5529  -75.7122 O.2       10 UNK        -0.4839 
     25 CA        -73.3087   30.2694  -76.0282 C.3       9 UNK         0.0222 
     26 CB        -72.4858   30.3034  -77.3332 C.3       9 UNK        -0.1966 
     27 N         -73.0574   28.9977  -75.3377 N.am      9 UNK        -0.4218 
     28 C         -71.9880   28.6525  -74.6022 C.2       9 UNK         0.5020 
     29 O         -71.1047   29.4333  -74.2466 O.2       9 UNK        -0.5274 
     30 CA        -71.8735   27.1663  -74.2155 C.3       8 UNK         0.0270 
     31 CB        -72.6705   26.8875  -72.9335 C.3       8 UNK        -0.1976 
     32 N         -72.3211   26.2629  -75.2825 N.am      8 UNK        -0.4313 
     33 C         -71.7160   26.1415  -76.4764 C.2       8 UNK         0.5041 
     34 O         -70.6537   26.6975  -76.7587 O.2       8 UNK        -0.5577 
     35 CA        -72.3979   25.2693  -77.5516 C.3       7 UNK         0.0284 
     36 CB        -71.7245   23.8894  -77.6284 C.3       7 UNK        -0.1958 
     37 N         -73.8393   25.0862  -77.3621 N.am      7 UNK        -0.4454 
     38 C         -74.7534   26.0650  -77.3294 C.2       7 UNK         0.5089 
     39 O         -74.4959   27.2498  -77.5391 O.2       7 UNK        -0.5125 
     40 CA        -76.1912   25.6744  -76.9459 C.3       6 UNK         0.0408 
     41 CB        -77.0643   25.5360  -78.2023 C.3       6 UNK        -0.1791 
     42 N         -76.3543   24.4722  -76.1171 N.am      6 UNK        -0.4762 
     43 C         -75.6973   24.1279  -74.9961 C.2       6 UNK         0.5007 
     44 O         -74.7197   24.7401  -74.5632 O.2       6 UNK        -0.5032 
     45 CA        -76.2238   22.8952  -74.2214 C.3       5 UNK         0.0783 
     46 C46       -76.4793   23.1688  -72.7129 C.3       11 UNK        -0.0857 
     47 S47       -77.4788   24.6557  -72.3333 S.3       11 UNK        -0.2512 
     48 C48       -76.1715   25.7644  -71.6971 C.3       11 UNK         0.0225 
     49 N         -77.4039   22.2997  -74.8621 N.am      5 UNK        -0.4615 
     50 C         -77.3557   21.3077  -75.7646 C.2       4 UNK         0.5053 
     51 O         -76.3111   20.7821  -76.1479 O.2       4 UNK        -0.5105 
     52 CA        -78.6876   20.8514  -76.3700 C.3       4 UNK         0.0263 
     53 CB        -79.4528   19.9273  -75.4055 C.3       4 UNK        -0.1981 
     54 N         -79.4992   22.0115  -76.7242 N.am      4 UNK        -0.4224 
     55 C         -80.4499   22.0682  -77.6592 C.2       3 UNK         0.4895 
     56 O         -80.7904   21.1051  -78.3487 O.2       3 UNK        -0.5091 
     57 CA        -81.1361   23.4414  -77.8359 C.3       3 UNK         0.0250 
     58 CB        -82.3010   23.3961  -78.8427 C.3       3 UNK        -0.1996 
     59 N         -81.6243   24.0054  -76.5700 N.am      3 UNK        -0.4254 
     60 C         -80.8644   24.5329  -75.6008 C.2       2 UNK         0.5004 
     61 O         -79.6312   24.5792  -75.6477 O.2       2 UNK        -0.5226 
     62 CA        -81.5900   25.0036  -74.3357 C.3       2 UNK         0.0269 
     63 CB        -81.4280   23.9654  -73.2133 C.3       2 UNK        -0.1926 
     64 N         -81.0342   26.2777  -73.8897 N.am      2 UNK        -0.4687 
     65 C         -81.4586   27.4806  -74.3015 C.2       1 UNK         0.5165 
     66 O         -82.4142   27.6368  -75.0644 O.2       1 UNK        -0.5079 
     67 H67       -78.7397   27.0369  -70.5543 H         1 UNK         0.0900 
     68 H68       -78.7007   28.7433  -70.0724 H         1 UNK         0.0900 
     69 H69       -79.8654   27.6393  -69.3419 H         1 UNK         0.0900 
     70 H70       -78.8711   28.3623  -72.7742 H         1 UNK         0.2959 
     71 H71       -81.4908   29.4056  -73.4296 H         1 UNK         0.1079 
     72 H72       -79.4429   30.3576  -74.4537 H         1 UNK         0.0837 
     73 H73       -80.6438   29.8788  -75.6075 H         1 UNK         0.0837 
     74 H74       -77.1686   30.2992  -75.4413 H         1 UNK         0.0685 
     75 H75       -76.3420   28.8448  -75.9353 H         1 UNK         0.0685 
     76 H76       -76.8259   26.7552  -74.1662 H         1 UNK         0.1434 
     77 H77       -75.8175   28.0008  -70.1961 H         1 UNK         0.1329 
     78 H78       -76.6653   30.9301  -73.2079 H         1 UNK         0.1335 
     79 H79       -76.1571   30.3051  -69.5723 H         1 UNK         0.0680 
     80 H80       -76.6415   31.5134  -70.7272 H         1 UNK         0.0680 
     81 H81       -74.2397   33.5628  -71.2385 H         1 UNK         0.1032 
     82 H82       -75.3306   32.6854  -72.2549 H         1 UNK         0.1032 
     83 H83       -73.4697   33.5371  -73.5204 H         1 UNK         0.0461 
     84 H84       -69.9519   32.0330  -72.3959 H         1 UNK         0.3453 
     85 H85       -71.1054   31.0806  -73.3019 H         1 UNK         0.3453 
     86 H86       -73.8416   30.6437  -73.5037 H         1 UNK         0.2984 
     87 H87       -74.3622   30.2562  -76.3084 H         1 UNK         0.0554 
     88 H88       -72.7409   31.1715  -77.9423 H         1 UNK         0.0847 
     89 H89       -72.6736   29.4190  -77.9426 H         1 UNK         0.0847 
     90 H90       -71.4152   30.3468  -77.1297 H         1 UNK         0.0847 
     91 H91       -73.6982   28.2544  -75.5833 H         1 UNK         0.3141 
     92 H92       -70.8209   26.9535  -74.0176 H         1 UNK         0.0743 
     93 H93       -72.3248   27.5160  -72.1115 H         1 UNK         0.0784 
     94 H94       -73.7301   27.0937  -73.0769 H         1 UNK         0.0784 
     95 H95       -72.5693   25.8492  -72.6173 H         1 UNK         0.0784 
     96 H96       -73.1750   25.7357  -75.1096 H         1 UNK         0.3213 
     97 H97       -72.2574   25.7748  -78.5094 H         1 UNK         0.0855 
     98 H98       -71.8554   23.3250  -76.7042 H         1 UNK         0.0814 
     99 H99       -70.6516   23.9877  -77.8006 H         1 UNK         0.0814 
    100 H100      -72.1279   23.2941  -78.4478 H         1 UNK         0.0814 
    101 H101      -74.1545   24.1503  -77.1526 H         1 UNK         0.3105 
    102 H102      -76.5887   26.5037  -76.3654 H         1 UNK         0.0547 
    103 H103      -76.7750   24.6730  -78.8030 H         1 UNK         0.0837 
    104 H104      -76.9812   26.4199  -78.8365 H         1 UNK         0.0837 
    105 H105      -78.1175   25.4305  -77.9410 H         1 UNK         0.0837 
    106 H106      -77.1537   23.9029  -76.3494 H         1 UNK         0.3020 
    107 H107      -75.4087   22.1687  -74.2632 H         1 UNK         0.1245 
    108 H108      -75.5237   23.2296  -72.1902 H         1 UNK         0.0781 
    109 H109      -76.9800   22.3092  -72.2645 H         1 UNK         0.0781 
    110 H110      -75.1905   25.4353  -72.0376 H         1 UNK         0.0836 
    111 H111      -76.1582   25.6833  -70.6092 H         1 UNK         0.0836 
    112 H112      -78.2929   22.6864  -74.5776 H         1 UNK         0.3022 
    113 H113      -78.4587   20.2939  -77.2812 H         1 UNK         0.0747 
    114 H114      -80.3574   19.5333  -75.8691 H         1 UNK         0.0793 
    115 H115      -78.8404   19.0726  -75.1150 H         1 UNK         0.0793 
    116 H116      -79.7454   20.4474  -74.4926 H         1 UNK         0.0793 
    117 H117      -79.3082   22.8821  -76.2331 H         1 UNK         0.3047 
    118 H118      -80.3802   24.1190  -78.2390 H         1 UNK         0.0822 
    119 H119      -82.7326   24.3855  -78.9959 H         1 UNK         0.0807 
    120 H120      -83.0972   22.7293  -78.5092 H         1 UNK         0.0807 
    121 H121      -81.9637   23.0400  -79.8172 H         1 UNK         0.0807 
    122 H122      -82.6231   23.9598  -76.4266 H         1 UNK         0.2946 
    123 H123      -82.6550   25.1231  -74.5486 H         1 UNK         0.1144 
    124 H124      -81.9433   24.2806  -72.3058 H         1 UNK         0.0793 
    125 H125      -80.3799   23.7999  -72.9612 H         1 UNK         0.0793 
    126 H126      -81.8485   23.0026  -73.5070 H         1 UNK         0.0793 
    127 H127      -80.2040   26.2354  -73.3166 H         1 UNK         0.2896 
@<TRIPOS>BOND
     1    1    2 1    
     2    1   67 1    
     3    1   68 1    
     4    1   69 1    
     5    2    3 2    
     6    2    4 am   BACKBONE|DICT|INTERRES
     7    4    5 1    
     8    4   70 1    
     9    5    6 1    
    10    5   65 1    
    11    5   71 1    
    12    6    7 1    
    13    6   72 1    
    14    6   73 1    
    15    7    8 1    
    16    8    9 1    
    17    8   74 1    
    18    8   75 1    
    19    9   10 ar   
    20    9   14 ar   
    21   10   11 ar   
    22   10   76 1    
    23   11   12 ar   
    24   11   48 1    
    25   12   13 ar   
    26   12   77 1    
    27   13   14 ar   
    28   13   15 1    
    29   14   78 1    
    30   15   16 1    
    31   15   79 1    
    32   15   80 1    
    33   16   17 1    
    34   17   18 1    
    35   17   81 1    
    36   17   82 1    
    37   18   19 1    
    38   18   22 1    
    39   18   83 1    
    40   19   20 am   BACKBONE|DICT|INTERRES
    41   19   21 2    
    42   20   84 1    
    43   20   85 1    
    44   22   23 am   BACKBONE|DICT|INTERRES
    45   22   86 1    
    46   23   24 2    
    47   23   25 1    
    48   25   26 1    
    49   25   27 1    
    50   25   87 1    
    51   26   88 1    
    52   26   89 1    
    53   26   90 1    
    54   27   28 am   BACKBONE|DICT|INTERRES
    55   27   91 1    
    56   28   29 2    
    57   28   30 1    
    58   30   31 1    
    59   30   32 1    
    60   30   92 1    
    61   31   93 1    
    62   31   94 1    
    63   31   95 1    
    64   32   33 am   BACKBONE|DICT|INTERRES
    65   32   96 1    
    66   33   34 2    
    67   33   35 1    
    68   35   36 1    
    69   35   37 1    
    70   35   97 1    
    71   36   98 1    
    72   36   99 1    
    73   36  100 1    
    74   37   38 am   BACKBONE|DICT|INTERRES
    75   37  101 1    
    76   38   39 2    
    77   38   40 1    
    78   40   41 1    
    79   40   42 1    
    80   40  102 1    
    81   41  103 1    
    82   41  104 1    
    83   41  105 1    
    84   42   43 am   BACKBONE|DICT|INTERRES
    85   42  106 1    
    86   43   44 2    
    87   43   45 1    
    88   45   46 1    
    89   45   49 1    
    90   45  107 1    
    91   46   47 1    
    92   46  108 1    
    93   46  109 1    
    94   47   48 1    
    95   48  110 1    
    96   48  111 1    
    97   49   50 am   BACKBONE|DICT|INTERRES
    98   49  112 1    
    99   50   51 2    
   100   50   52 1    
   101   52   53 1    
   102   52   54 1    
   103   52  113 1    
   104   53  114 1    
   105   53  115 1    
   106   53  116 1    
   107   54   55 am   BACKBONE|DICT|INTERRES
   108   54  117 1    
   109   55   56 2    
   110   55   57 1    
   111   57   58 1    
   112   57   59 1    
   113   57  118 1    
   114   58  119 1    
   115   58  120 1    
   116   58  121 1    
   117   59   60 am   BACKBONE|DICT|INTERRES
   118   59  122 1    
   119   60   61 2    
   120   60   62 1    
   121   62   63 1    
   122   62   64 1    
   123   62  123 1    
   124   63  124 1    
   125   63  125 1    
   126   63  126 1    
   127   64   65 am   BACKBONE|DICT|INTERRES
   128   64  127 1    
   129   65   66 2    
@<TRIPOS>SUBSTRUCTURE
     1 UNK         1 GROUP             0       ****    0 ROOT    
