@<TRIPOS>MOLECULE
3R135
127   129    1
SMALL
USER_CHARGES


@<TRIPOS>ATOM
      1 CA        -78.6233   31.8056  -75.0322 C.3       0 UNK        -0.1998 
      2 C         -78.4105   30.4256  -74.4299 C.2       0 UNK         0.4909 
      3 O         -77.2979   30.1021  -74.0215 O.2       0 UNK        -0.5240 
      4 N         -79.4689   29.6082  -74.3691 N.am      1 UNK        -0.4739 
      5 CA        -79.4282   28.2581  -73.7950 C.3       1 UNK         0.0864 
      6 C6        -80.8134   27.8876  -73.1961 C.3       11 UNK        -0.0881 
      7 S7        -80.8292   26.3924  -72.1463 S.3       11 UNK        -0.2682 
      8 C8        -80.3714   27.0428  -70.5045 C.3       11 UNK         0.0289 
      9 C9        -78.9964   27.6982  -70.5062 C.ar      11 UNK        -0.0687 
     10 C10       -77.8517   26.9408  -70.7781 C.ar      11 UNK        -0.0823 
     11 C11       -76.5898   27.5489  -70.8467 C.ar      11 UNK        -0.0830 
     12 C12       -76.4901   28.9225  -70.6012 C.ar      11 UNK        -0.1021 
     13 C13       -77.6227   29.6928  -70.3143 C.ar      11 UNK        -0.0753 
     14 C14       -78.8739   29.0709  -70.2736 C.ar      11 UNK        -0.0933 
     15 C15       -77.5089   31.1835  -70.0031 C.3       11 UNK         0.0166 
     16 S16       -76.8310   32.1702  -71.3810 S.3       11 UNK        -0.2615 
     17 C17       -75.0581   32.2232  -70.9476 C.3       11 UNK        -0.0865 
     18 CA        -74.0800   32.1310  -72.1515 C.3       10 UNK         0.0862 
     19 C         -72.6208   32.1074  -71.6032 C.2       10 UNK         0.5551 
     20 N         -71.9619   30.9569  -71.5338 N.am      10 UNK        -0.7319 
     21 O         -72.0898   33.1487  -71.2249 O.2       10 UNK        -0.5018 
     22 N         -74.4351   31.0602  -73.1073 N.am      10 UNK        -0.4509 
     23 C         -73.7616   30.7693  -74.2294 C.2       10 UNK         0.4899 
     24 O         -72.7380   31.3487  -74.6000 O.2       10 UNK        -0.4839 
     25 CA        -74.3191   29.6447  -75.1039 C.3       9 UNK         0.0222 
     26 CB        -75.0294   30.2085  -76.3503 C.3       9 UNK        -0.1966 
     27 N         -73.2088   28.7880  -75.5029 N.am      9 UNK        -0.4218 
     28 C         -73.3291   27.5268  -75.9235 C.2       9 UNK         0.5020 
     29 O         -74.4080   26.9424  -76.0400 O.2       9 UNK        -0.5274 
     30 CA        -72.0186   26.7916  -76.2354 C.3       8 UNK         0.0270 
     31 CB        -71.4331   26.1457  -74.9684 C.3       8 UNK        -0.1976 
     32 N         -72.2633   25.7520  -77.2322 N.am      8 UNK        -0.4313 
     33 C         -72.0990   25.9181  -78.5510 C.2       8 UNK         0.5041 
     34 O         -71.6197   26.9343  -79.0574 O.2       8 UNK        -0.5577 
     35 CA        -72.5244   24.7622  -79.4745 C.3       7 UNK         0.0284 
     36 CB        -71.2976   23.9457  -79.9139 C.3       7 UNK        -0.1958 
     37 N         -73.5057   23.8611  -78.8685 N.am      7 UNK        -0.4454 
     38 C         -74.7951   24.1599  -78.6606 C.2       7 UNK         0.5089 
     39 O         -75.3146   25.2244  -78.9966 O.2       7 UNK        -0.5125 
     40 CA        -75.6582   23.0837  -77.9762 C.3       6 UNK         0.0408 
     41 CB        -75.0674   21.6566  -78.0515 C.3       6 UNK        -0.1791 
     42 N         -75.9834   23.4291  -76.5881 N.am      6 UNK        -0.4762 
     43 C         -75.1220   23.6496  -75.5810 C.2       6 UNK         0.5007 
     44 O         -73.8975   23.6563  -75.7288 O.2       6 UNK        -0.5032 
     45 CA        -75.7041   23.8212  -74.1593 C.3       5 UNK         0.0783 
     46 C46       -75.2737   25.1440  -73.4773 C.3       11 UNK        -0.0857 
     47 S47       -75.5035   25.0396  -71.6697 S.3       11 UNK        -0.2512 
     48 C48       -75.3001   26.7786  -71.1479 C.3       11 UNK         0.0225 
     49 N         -77.1608   23.6530  -74.1106 N.am      5 UNK        -0.4615 
     50 C         -77.7847   22.4793  -73.9533 C.2       4 UNK         0.5053 
     51 O         -77.2040   21.3940  -73.9335 O.2       4 UNK        -0.5105 
     52 CA        -79.3073   22.5171  -73.7752 C.3       4 UNK         0.0263 
     53 CB        -79.6586   22.9317  -72.3370 C.3       4 UNK        -0.1981 
     54 N         -79.9369   23.4415  -74.7219 N.am      4 UNK        -0.4224 
     55 C         -80.7507   23.0653  -75.7205 C.2       3 UNK         0.4895 
     56 O         -81.0731   21.8969  -75.9401 O.2       3 UNK        -0.5091 
     57 CA        -81.3169   24.1676  -76.6377 C.3       3 UNK         0.0250 
     58 CB        -82.6994   24.6175  -76.1375 C.3       3 UNK        -0.1996 
     59 N         -80.4499   25.3402  -76.7587 N.am      3 UNK        -0.4254 
     60 C         -79.2251   25.3431  -77.3036 C.2       2 UNK         0.5004 
     61 O         -78.7340   24.3671  -77.8665 O.2       2 UNK        -0.5226 
     62 CA        -78.3938   26.6344  -77.1600 C.3       2 UNK         0.0269 
     63 CB        -78.3677   27.4139  -78.4837 C.3       2 UNK        -0.1926 
     64 N         -78.8537   27.5248  -76.0848 N.am      2 UNK        -0.4687 
     65 C         -78.8850   27.2018  -74.7825 C.2       1 UNK         0.5165 
     66 O         -78.5283   26.0984  -74.3640 O.2       1 UNK        -0.5079 
     67 H67       -79.6784   32.0165  -75.2052 H         1 UNK         0.0900 
     68 H68       -78.2321   32.5688  -74.3597 H         1 UNK         0.0900 
     69 H69       -78.0980   31.8869  -75.9830 H         1 UNK         0.0900 
     70 H70       -80.3654   29.9226  -74.7130 H         1 UNK         0.2959 
     71 H71       -78.6981   28.2801  -72.9897 H         1 UNK         0.1079 
     72 H72       -81.1873   28.7162  -72.5923 H         1 UNK         0.0837 
     73 H73       -81.5461   27.7498  -73.9931 H         1 UNK         0.0837 
     74 H74       -80.3729   26.2208  -69.7876 H         1 UNK         0.0685 
     75 H75       -81.1397   27.7425  -70.1721 H         1 UNK         0.0685 
     76 H76       -77.9656   25.8823  -70.9619 H         1 UNK         0.1434 
     77 H77       -75.5176   29.3890  -70.6320 H         1 UNK         0.1329 
     78 H78       -79.7574   29.6574  -70.0615 H         1 UNK         0.1335 
     79 H79       -78.4920   31.5913  -69.7627 H         1 UNK         0.0680 
     80 H80       -76.9062   31.3226  -69.1047 H         1 UNK         0.0680 
     81 H81       -74.8885   33.1580  -70.4093 H         1 UNK         0.1032 
     82 H82       -74.8381   31.4367  -70.2253 H         1 UNK         0.1032 
     83 H83       -74.1761   33.0611  -72.7148 H         1 UNK         0.0461 
     84 H84       -71.0193   30.9480  -71.1778 H         1 UNK         0.3453 
     85 H85       -72.3918   30.1029  -71.8488 H         1 UNK         0.3453 
     86 H86       -75.3208   30.5946  -72.9435 H         1 UNK         0.2984 
     87 H87       -75.0210   29.0527  -74.5133 H         1 UNK         0.0554 
     88 H88       -75.7769   30.9515  -76.0737 H         1 UNK         0.0847 
     89 H89       -75.5437   29.4215  -76.9022 H         1 UNK         0.0847 
     90 H90       -74.3271   30.6938  -77.0288 H         1 UNK         0.0847 
     91 H91       -72.2934   29.2107  -75.4095 H         1 UNK         0.3141 
     92 H92       -71.2941   27.5148  -76.6163 H         1 UNK         0.0743 
     93 H93       -72.0869   25.3723  -74.5663 H         1 UNK         0.0784 
     94 H94       -70.4665   25.6857  -75.1741 H         1 UNK         0.0784 
     95 H95       -71.2782   26.8860  -74.1824 H         1 UNK         0.0784 
     96 H96       -72.7621   24.9322  -76.8990 H         1 UNK         0.3213 
     97 H97       -72.9753   25.2069  -80.3645 H         1 UNK         0.0855 
     98 H98       -70.8060   23.4665  -79.0664 H         1 UNK         0.0814 
     99 H99       -70.5585   24.5844  -80.3999 H         1 UNK         0.0814 
    100 H100      -71.5713   23.1694  -80.6288 H         1 UNK         0.0814 
    101 H101      -73.1649   22.9694  -78.5394 H         1 UNK         0.3105 
    102 H102      -76.6005   23.0626  -78.5234 H         1 UNK         0.0547 
    103 H103      -74.8452   21.3757  -79.0819 H         1 UNK         0.0837 
    104 H104      -74.1503   21.5498  -77.4714 H         1 UNK         0.0837 
    105 H105      -75.7786   20.9235  -77.6706 H         1 UNK         0.0837 
    106 H106      -76.9713   23.4855  -76.3813 H         1 UNK         0.3020 
    107 H107      -75.2485   23.0081  -73.5887 H         1 UNK         0.1245 
    108 H108      -75.8346   25.9916  -73.8754 H         1 UNK         0.0781 
    109 H109      -74.2204   25.3579  -73.6583 H         1 UNK         0.0781 
    110 H110      -74.7268   27.3140  -71.9067 H         1 UNK         0.0836 
    111 H111      -74.6876   26.7835  -70.2453 H         1 UNK         0.0836 
    112 H112      -77.6993   24.5175  -74.1147 H         1 UNK         0.3022 
    113 H113      -79.6793   21.5016  -73.9266 H         1 UNK         0.0747 
    114 H114      -80.7375   22.9791  -72.1887 H         1 UNK         0.0793 
    115 H115      -79.2617   22.2146  -71.6175 H         1 UNK         0.0793 
    116 H116      -79.2419   23.9072  -72.0843 H         1 UNK         0.0793 
    117 H117      -79.7019   24.4233  -74.6222 H         1 UNK         0.3047 
    118 H118      -81.4337   23.7362  -77.6343 H         1 UNK         0.0822 
    119 H119      -83.1544   25.3372  -76.8183 H         1 UNK         0.0807 
    120 H120      -82.6417   25.0769  -75.1495 H         1 UNK         0.0807 
    121 H121      -83.3819   23.7695  -76.0627 H         1 UNK         0.0807 
    122 H122      -80.7773   26.1943  -76.3331 H         1 UNK         0.2946 
    123 H123      -77.3705   26.3298  -76.9230 H         1 UNK         0.1144 
    124 H124      -77.7101   28.2811  -78.4195 H         1 UNK         0.0793 
    125 H125      -79.3612   27.7609  -78.7700 H         1 UNK         0.0793 
    126 H126      -77.9920   26.7873  -79.2942 H         1 UNK         0.0793 
    127 H127      -79.1493   28.4526  -76.3517 H         1 UNK         0.2896 
@<TRIPOS>BOND
     1    1    2 1    
     2    1   67 1    
     3    1   68 1    
     4    1   69 1    
     5    2    3 2    
     6    2    4 am   BACKBONE|DICT|INTERRES
     7    4    5 1    
     8    4   70 1    
     9    5    6 1    
    10    5   65 1    
    11    5   71 1    
    12    6    7 1    
    13    6   72 1    
    14    6   73 1    
    15    7    8 1    
    16    8    9 1    
    17    8   74 1    
    18    8   75 1    
    19    9   10 ar   
    20    9   14 ar   
    21   10   11 ar   
    22   10   76 1    
    23   11   12 ar   
    24   11   48 1    
    25   12   13 ar   
    26   12   77 1    
    27   13   14 ar   
    28   13   15 1    
    29   14   78 1    
    30   15   16 1    
    31   15   79 1    
    32   15   80 1    
    33   16   17 1    
    34   17   18 1    
    35   17   81 1    
    36   17   82 1    
    37   18   19 1    
    38   18   22 1    
    39   18   83 1    
    40   19   20 am   BACKBONE|DICT|INTERRES
    41   19   21 2    
    42   20   84 1    
    43   20   85 1    
    44   22   23 am   BACKBONE|DICT|INTERRES
    45   22   86 1    
    46   23   24 2    
    47   23   25 1    
    48   25   26 1    
    49   25   27 1    
    50   25   87 1    
    51   26   88 1    
    52   26   89 1    
    53   26   90 1    
    54   27   28 am   BACKBONE|DICT|INTERRES
    55   27   91 1    
    56   28   29 2    
    57   28   30 1    
    58   30   31 1    
    59   30   32 1    
    60   30   92 1    
    61   31   93 1    
    62   31   94 1    
    63   31   95 1    
    64   32   33 am   BACKBONE|DICT|INTERRES
    65   32   96 1    
    66   33   34 2    
    67   33   35 1    
    68   35   36 1    
    69   35   37 1    
    70   35   97 1    
    71   36   98 1    
    72   36   99 1    
    73   36  100 1    
    74   37   38 am   BACKBONE|DICT|INTERRES
    75   37  101 1    
    76   38   39 2    
    77   38   40 1    
    78   40   41 1    
    79   40   42 1    
    80   40  102 1    
    81   41  103 1    
    82   41  104 1    
    83   41  105 1    
    84   42   43 am   BACKBONE|DICT|INTERRES
    85   42  106 1    
    86   43   44 2    
    87   43   45 1    
    88   45   46 1    
    89   45   49 1    
    90   45  107 1    
    91   46   47 1    
    92   46  108 1    
    93   46  109 1    
    94   47   48 1    
    95   48  110 1    
    96   48  111 1    
    97   49   50 am   BACKBONE|DICT|INTERRES
    98   49  112 1    
    99   50   51 2    
   100   50   52 1    
   101   52   53 1    
   102   52   54 1    
   103   52  113 1    
   104   53  114 1    
   105   53  115 1    
   106   53  116 1    
   107   54   55 am   BACKBONE|DICT|INTERRES
   108   54  117 1    
   109   55   56 2    
   110   55   57 1    
   111   57   58 1    
   112   57   59 1    
   113   57  118 1    
   114   58  119 1    
   115   58  120 1    
   116   58  121 1    
   117   59   60 am   BACKBONE|DICT|INTERRES
   118   59  122 1    
   119   60   61 2    
   120   60   62 1    
   121   62   63 1    
   122   62   64 1    
   123   62  123 1    
   124   63  124 1    
   125   63  125 1    
   126   63  126 1    
   127   64   65 am   BACKBONE|DICT|INTERRES
   128   64  127 1    
   129   65   66 2    
@<TRIPOS>SUBSTRUCTURE
     1 UNK         1 GROUP             0       ****    0 ROOT    
