@<TRIPOS>MOLECULE
3R135
127   129    1
SMALL
USER_CHARGES


@<TRIPOS>ATOM
      1 CA        -76.7997   24.5006  -78.9581 C.3       0 UNK        -0.1998 
      2 C         -77.4904   23.4222  -78.1381 C.2       0 UNK         0.4909 
      3 O         -77.9729   22.4366  -78.6985 O.2       0 UNK        -0.5240 
      4 N         -77.5282   23.5974  -76.8118 N.am      1 UNK        -0.4739 
      5 CA        -78.2160   22.7037  -75.8734 C.3       1 UNK         0.0864 
      6 C6        -77.7447   22.9248  -74.4119 C.3       11 UNK        -0.0881 
      7 S7        -78.0868   24.5891  -73.7416 S.3       11 UNK        -0.2682 
      8 C8        -77.3995   24.4154  -72.0661 C.3       11 UNK         0.0289 
      9 C9        -77.1283   25.7878  -71.4791 C.ar      11 UNK        -0.0687 
     10 C10       -78.1468   26.4955  -70.8349 C.ar      11 UNK        -0.0823 
     11 C11       -77.9398   27.8203  -70.4342 C.ar      11 UNK        -0.0830 
     12 C12       -76.6807   28.4055  -70.6086 C.ar      11 UNK        -0.1021 
     13 C13       -75.6457   27.6894  -71.2170 C.ar      11 UNK        -0.0753 
     14 C14       -75.8764   26.3830  -71.6541 C.ar      11 UNK        -0.0933 
     15 C15       -74.2904   28.3363  -71.4474 C.3       11 UNK         0.0166 
     16 S16       -74.2229   29.1160  -73.0865 S.3       11 UNK        -0.2615 
     17 C17       -72.4645   29.5931  -73.1511 C.3       11 UNK        -0.0865 
     18 CA        -72.1190   30.3973  -74.4387 C.3       10 UNK         0.0862 
     19 C         -72.3635   31.9341  -74.3136 C.2       10 UNK         0.5551 
     20 N         -71.6588   32.7678  -75.0698 N.am      10 UNK        -0.7319 
     21 O         -73.2088   32.3829  -73.5436 O.2       10 UNK        -0.5018 
     22 N         -70.8064   30.0231  -74.9915 N.am      10 UNK        -0.4509 
     23 C         -69.6127   30.2338  -74.4157 C.2       10 UNK         0.4899 
     24 O         -69.4725   30.7746  -73.3179 O.2       10 UNK        -0.4839 
     25 CA        -68.3649   29.7819  -75.2085 C.3       9 UNK         0.0222 
     26 CB        -67.1407   29.5186  -74.3046 C.3       9 UNK        -0.1966 
     27 N         -68.6226   28.6459  -76.1049 N.am      9 UNK        -0.4218 
     28 C         -68.9993   27.4094  -75.7492 C.2       9 UNK         0.5020 
     29 O         -69.0804   27.0075  -74.5861 O.2       9 UNK        -0.5274 
     30 CA        -69.4145   26.4727  -76.8974 C.3       8 UNK         0.0270 
     31 CB        -68.4980   25.2397  -76.9673 C.3       8 UNK        -0.1976 
     32 N         -70.8051   26.0435  -76.7279 N.am      8 UNK        -0.4313 
     33 C         -71.8568   26.8732  -76.7199 C.2       8 UNK         0.5041 
     34 O         -71.7800   28.0796  -76.9829 O.2       8 UNK        -0.5577 
     35 CA        -73.2099   26.2654  -76.3270 C.3       7 UNK         0.0284 
     36 CB        -73.1741   25.7138  -74.8836 C.3       7 UNK        -0.1958 
     37 N         -74.2143   27.3173  -76.4442 N.am      7 UNK        -0.4454 
     38 C         -75.5354   27.1643  -76.3550 C.2       7 UNK         0.5089 
     39 O         -76.1001   26.0751  -76.2233 O.2       7 UNK        -0.5125 
     40 CA        -76.3777   28.4413  -76.4185 C.3       6 UNK         0.0408 
     41 CB        -76.9388   28.6754  -77.8298 C.3       6 UNK        -0.1791 
     42 N         -77.4702   28.2524  -75.4781 N.am      6 UNK        -0.4762 
     43 C         -77.9649   29.1682  -74.6401 C.2       6 UNK         0.5007 
     44 O         -77.6856   30.3679  -74.6783 O.2       6 UNK        -0.5032 
     45 CA        -78.9305   28.6095  -73.5802 C.3       5 UNK         0.0783 
     46 C46       -79.4483   29.6634  -72.5607 C.3       11 UNK        -0.0857 
     47 S47       -80.3872   28.8995  -71.1880 S.3       11 UNK        -0.2512 
     48 C48       -79.1038   28.6490  -69.9093 C.3       11 UNK         0.0225 
     49 N         -79.9767   27.7827  -74.1899 N.am      5 UNK        -0.4615 
     50 C         -80.9381   28.1863  -75.0308 C.2       4 UNK         0.5053 
     51 O         -81.1003   29.3536  -75.3874 O.2       4 UNK        -0.5105 
     52 CA        -81.8727   27.0971  -75.5888 C.3       4 UNK         0.0263 
     53 CB        -81.4979   26.7760  -77.0450 C.3       4 UNK        -0.1981 
     54 N         -81.8529   25.8600  -74.7984 N.am      4 UNK        -0.4224 
     55 C         -82.4648   25.7163  -73.6109 C.2       3 UNK         0.4895 
     56 O         -83.1489   26.6025  -73.0965 O.2       3 UNK        -0.5091 
     57 CA        -82.2634   24.3854  -72.8525 C.3       3 UNK         0.0250 
     58 CB        -83.4586   24.0306  -71.9418 C.3       3 UNK        -0.1996 
     59 N         -81.9039   23.2527  -73.7138 N.am      3 UNK        -0.4254 
     60 C         -82.6282   22.7123  -74.7071 C.2       2 UNK         0.5004 
     61 O         -83.7799   23.0525  -74.9823 O.2       2 UNK        -0.5226 
     62 CA        -81.9267   21.6225  -75.5494 C.3       2 UNK         0.0269 
     63 CB        -82.4898   21.5386  -76.9847 C.3       2 UNK        -0.1926 
     64 N         -80.4577   21.7457  -75.5840 N.am      2 UNK        -0.4687 
     65 C         -79.7511   22.8098  -75.9999 C.2       1 UNK         0.5165 
     66 O         -80.2682   23.8578  -76.3951 O.2       1 UNK        -0.5079 
     67 H67       -76.7417   24.2147  -80.0081 H         1 UNK         0.0900 
     68 H68       -75.7857   24.6681  -78.5956 H         1 UNK         0.0900 
     69 H69       -77.3509   25.4378  -78.8896 H         1 UNK         0.0900 
     70 H70       -77.1236   24.4415  -76.4119 H         1 UNK         0.2959 
     71 H71       -77.9446   21.6831  -76.1530 H         1 UNK         0.1079 
     72 H72       -76.6684   22.7533  -74.3552 H         1 UNK         0.0837 
     73 H73       -78.1943   22.1831  -73.7492 H         1 UNK         0.0837 
     74 H74       -78.0969   23.8588  -71.4383 H         1 UNK         0.0685 
     75 H75       -76.4757   23.8356  -72.1006 H         1 UNK         0.0685 
     76 H76       -79.1258   26.0488  -70.7256 H         1 UNK         0.1434 
     77 H77       -76.5150   29.4319  -70.3102 H         1 UNK         0.1329 
     78 H78       -75.0909   25.8432  -72.1653 H         1 UNK         0.1335 
     79 H79       -73.5019   27.5863  -71.3667 H         1 UNK         0.0680 
     80 H80       -74.0898   29.0849  -70.6793 H         1 UNK         0.0680 
     81 H81       -71.8851   28.6688  -73.1163 H         1 UNK         0.1032 
     82 H82       -72.1910   30.1480  -72.2516 H         1 UNK         0.1032 
     83 H83       -72.8143   30.0826  -75.2177 H         1 UNK         0.0461 
     84 H84       -71.8194   33.7599  -74.9942 H         1 UNK         0.3453 
     85 H85       -70.9684   32.4139  -75.7123 H         1 UNK         0.3453 
     86 H86       -70.8465   29.5306  -75.8781 H         1 UNK         0.2984 
     87 H87       -68.1109   30.6202  -75.8586 H         1 UNK         0.0554 
     88 H88       -66.8544   30.4203  -73.7617 H         1 UNK         0.0847 
     89 H89       -66.2749   29.2063  -74.8881 H         1 UNK         0.0847 
     90 H90       -67.3420   28.7461  -73.5619 H         1 UNK         0.0847 
     91 H91       -68.6089   28.8657  -77.0921 H         1 UNK         0.3141 
     92 H92       -69.3411   27.0079  -77.8466 H         1 UNK         0.0743 
     93 H93       -68.5464   24.6465  -76.0530 H         1 UNK         0.0784 
     94 H94       -68.7649   24.5924  -77.8029 H         1 UNK         0.0784 
     95 H95       -67.4576   25.5363  -77.1075 H         1 UNK         0.0784 
     96 H96       -70.9485   25.0760  -76.4776 H         1 UNK         0.3213 
     97 H97       -73.4507   25.4647  -77.0291 H         1 UNK         0.0855 
     98 H98       -72.9212   26.4935  -74.1644 H         1 UNK         0.0814 
     99 H99       -72.4352   24.9196  -74.7758 H         1 UNK         0.0814 
    100 H100      -74.1339   25.2900  -74.5883 H         1 UNK         0.0814 
    101 H101      -73.8088   28.2317  -76.6087 H         1 UNK         0.3105 
    102 H102      -75.7625   29.2922  -76.1168 H         1 UNK         0.0547 
    103 H103      -76.1339   28.7912  -78.5564 H         1 UNK         0.0837 
    104 H104      -77.5621   27.8433  -78.1589 H         1 UNK         0.0837 
    105 H105      -77.5449   29.5807  -77.8672 H         1 UNK         0.0837 
    106 H106      -77.7236   27.2796  -75.3496 H         1 UNK         0.3020 
    107 H107      -78.3051   27.9099  -73.0345 H         1 UNK         0.1245 
    108 H108      -80.0917   30.3910  -73.0575 H         1 UNK         0.0781 
    109 H109      -78.6180   30.2332  -72.1395 H         1 UNK         0.0781 
    110 H110      -79.5486   28.1440  -69.0508 H         1 UNK         0.0836 
    111 H111      -78.7620   29.6215  -69.5515 H         1 UNK         0.0836 
    112 H112      -79.9318   26.7976  -73.9736 H         1 UNK         0.3022 
    113 H113      -82.8890   27.4967  -75.5797 H         1 UNK         0.0747 
    114 H114      -81.5962   27.6598  -77.6768 H         1 UNK         0.0793 
    115 H115      -80.4664   26.4309  -77.1290 H         1 UNK         0.0793 
    116 H116      -82.1447   26.0039  -77.4623 H         1 UNK         0.0793 
    117 H117      -81.3261   25.0838  -75.1898 H         1 UNK         0.3047 
    118 H118      -81.4005   24.5494  -72.2051 H         1 UNK         0.0822 
    119 H119      -83.6243   24.8056  -71.1923 H         1 UNK         0.0807 
    120 H120      -83.2865   23.0974  -71.4057 H         1 UNK         0.0807 
    121 H121      -84.3838   23.9267  -72.5093 H         1 UNK         0.0807 
    122 H122      -80.9681   22.8944  -73.5856 H         1 UNK         0.2946 
    123 H123      -82.1484   20.6765  -75.0523 H         1 UNK         0.1144 
    124 H124      -81.9961   20.7553  -77.5598 H         1 UNK         0.0793 
    125 H125      -82.3651   22.4789  -77.5229 H         1 UNK         0.0793 
    126 H126      -83.5558   21.3078  -76.9767 H         1 UNK         0.0793 
    127 H127      -79.9509   20.9368  -75.2496 H         1 UNK         0.2896 
@<TRIPOS>BOND
     1    1    2 1    
     2    1   67 1    
     3    1   68 1    
     4    1   69 1    
     5    2    3 2    
     6    2    4 am   BACKBONE|DICT|INTERRES
     7    4    5 1    
     8    4   70 1    
     9    5    6 1    
    10    5   65 1    
    11    5   71 1    
    12    6    7 1    
    13    6   72 1    
    14    6   73 1    
    15    7    8 1    
    16    8    9 1    
    17    8   74 1    
    18    8   75 1    
    19    9   10 ar   
    20    9   14 ar   
    21   10   11 ar   
    22   10   76 1    
    23   11   12 ar   
    24   11   48 1    
    25   12   13 ar   
    26   12   77 1    
    27   13   14 ar   
    28   13   15 1    
    29   14   78 1    
    30   15   16 1    
    31   15   79 1    
    32   15   80 1    
    33   16   17 1    
    34   17   18 1    
    35   17   81 1    
    36   17   82 1    
    37   18   19 1    
    38   18   22 1    
    39   18   83 1    
    40   19   20 am   BACKBONE|DICT|INTERRES
    41   19   21 2    
    42   20   84 1    
    43   20   85 1    
    44   22   23 am   BACKBONE|DICT|INTERRES
    45   22   86 1    
    46   23   24 2    
    47   23   25 1    
    48   25   26 1    
    49   25   27 1    
    50   25   87 1    
    51   26   88 1    
    52   26   89 1    
    53   26   90 1    
    54   27   28 am   BACKBONE|DICT|INTERRES
    55   27   91 1    
    56   28   29 2    
    57   28   30 1    
    58   30   31 1    
    59   30   32 1    
    60   30   92 1    
    61   31   93 1    
    62   31   94 1    
    63   31   95 1    
    64   32   33 am   BACKBONE|DICT|INTERRES
    65   32   96 1    
    66   33   34 2    
    67   33   35 1    
    68   35   36 1    
    69   35   37 1    
    70   35   97 1    
    71   36   98 1    
    72   36   99 1    
    73   36  100 1    
    74   37   38 am   BACKBONE|DICT|INTERRES
    75   37  101 1    
    76   38   39 2    
    77   38   40 1    
    78   40   41 1    
    79   40   42 1    
    80   40  102 1    
    81   41  103 1    
    82   41  104 1    
    83   41  105 1    
    84   42   43 am   BACKBONE|DICT|INTERRES
    85   42  106 1    
    86   43   44 2    
    87   43   45 1    
    88   45   46 1    
    89   45   49 1    
    90   45  107 1    
    91   46   47 1    
    92   46  108 1    
    93   46  109 1    
    94   47   48 1    
    95   48  110 1    
    96   48  111 1    
    97   49   50 am   BACKBONE|DICT|INTERRES
    98   49  112 1    
    99   50   51 2    
   100   50   52 1    
   101   52   53 1    
   102   52   54 1    
   103   52  113 1    
   104   53  114 1    
   105   53  115 1    
   106   53  116 1    
   107   54   55 am   BACKBONE|DICT|INTERRES
   108   54  117 1    
   109   55   56 2    
   110   55   57 1    
   111   57   58 1    
   112   57   59 1    
   113   57  118 1    
   114   58  119 1    
   115   58  120 1    
   116   58  121 1    
   117   59   60 am   BACKBONE|DICT|INTERRES
   118   59  122 1    
   119   60   61 2    
   120   60   62 1    
   121   62   63 1    
   122   62   64 1    
   123   62  123 1    
   124   63  124 1    
   125   63  125 1    
   126   63  126 1    
   127   64   65 am   BACKBONE|DICT|INTERRES
   128   64  127 1    
   129   65   66 2    
@<TRIPOS>SUBSTRUCTURE
     1 UNK         1 GROUP             0       ****    0 ROOT    
