@<TRIPOS>MOLECULE
3R135
127   129    1
SMALL
USER_CHARGES


@<TRIPOS>ATOM
      1 CA        -76.3963   29.4323  -76.6632 C.3       0 UNK        -0.1998 
      2 C         -77.1089   28.5631  -75.6382 C.2       0 UNK         0.4909 
      3 O         -76.6528   27.4517  -75.3705 O.2       0 UNK        -0.5240 
      4 N         -78.2057   29.0775  -75.0670 N.am      1 UNK        -0.4739 
      5 CA        -79.0829   28.3903  -74.1147 C.3       1 UNK         0.0864 
      6 C6        -79.8588   29.4341  -73.2619 C.3       11 UNK        -0.0881 
      7 S7        -80.8884   28.7190  -71.9275 S.3       11 UNK        -0.2682 
      8 C8        -79.9095   29.0666  -70.4320 C.3       11 UNK         0.0289 
      9 C9        -78.5154   28.4632  -70.5067 C.ar      11 UNK        -0.0687 
     10 C10       -78.3456   27.0790  -70.5948 C.ar      11 UNK        -0.0823 
     11 C11       -77.0667   26.5232  -70.7119 C.ar      11 UNK        -0.0830 
     12 C12       -75.9509   27.3671  -70.7002 C.ar      11 UNK        -0.1021 
     13 C13       -76.1076   28.7526  -70.5834 C.ar      11 UNK        -0.0753 
     14 C14       -77.3927   29.2927  -70.4905 C.ar      11 UNK        -0.0933 
     15 C15       -74.8971   29.6728  -70.5241 C.3       11 UNK         0.0166 
     16 S16       -74.8650   30.8326  -71.9245 S.3       11 UNK        -0.2615 
     17 C17       -73.4767   31.9080  -71.4273 C.3       11 UNK        -0.0865 
     18 CA        -72.9125   32.7220  -72.6181 C.3       10 UNK         0.0862 
     19 C         -71.8139   33.7110  -72.1437 C.2       10 UNK         0.5551 
     20 N         -72.1941   34.9260  -71.7736 N.am      10 UNK        -0.7319 
     21 O         -70.6334   33.3749  -72.0663 O.2       10 UNK        -0.5018 
     22 N         -72.4435   31.8289  -73.6818 N.am      10 UNK        -0.4509 
     23 C         -72.1521   32.1795  -74.9357 C.2       10 UNK         0.4899 
     24 O         -72.2562   33.3282  -75.3667 O.2       10 UNK        -0.4839 
     25 CA        -71.7040   31.0598  -75.8948 C.3       9 UNK         0.0222 
     26 CB        -70.1666   30.9838  -75.9715 C.3       9 UNK        -0.1966 
     27 N         -72.2975   29.7353  -75.6369 N.am      9 UNK        -0.4218 
     28 C         -72.1045   28.8980  -74.6042 C.2       9 UNK         0.5020 
     29 O         -71.3884   29.1640  -73.6381 O.2       9 UNK        -0.5274 
     30 CA        -72.8542   27.5488  -74.6202 C.3       8 UNK         0.0270 
     31 CB        -73.8590   27.4751  -73.4619 C.3       8 UNK        -0.1976 
     32 N         -73.5474   27.2465  -75.8791 N.am      8 UNK        -0.4313 
     33 C         -72.9207   26.9321  -77.0217 C.2       8 UNK         0.5041 
     34 O         -71.6972   26.8236  -77.1183 O.2       8 UNK        -0.5577 
     35 CA        -73.8097   26.7069  -78.2487 C.3       7 UNK         0.0284 
     36 CB        -73.0097   26.3775  -79.5267 C.3       7 UNK        -0.1958 
     37 N         -74.7608   25.6401  -77.9634 N.am      7 UNK        -0.4454 
     38 C         -75.9414   25.4785  -78.5632 C.2       7 UNK         0.5089 
     39 O         -76.4014   26.2648  -79.3922 O.2       7 UNK        -0.5125 
     40 CA        -76.7364   24.2139  -78.2059 C.3       6 UNK         0.0408 
     41 CB        -76.1185   22.9639  -78.8609 C.3       6 UNK        -0.1791 
     42 N         -76.9617   24.0039  -76.7734 N.am      6 UNK        -0.4762 
     43 C         -76.0968   23.7404  -75.7819 C.2       6 UNK         0.5007 
     44 O         -74.8720   23.7245  -75.9149 O.2       6 UNK        -0.5032 
     45 CA        -76.7280   23.3759  -74.4237 C.3       5 UNK         0.0783 
     46 C46       -77.1161   24.6452  -73.6225 C.3       11 UNK        -0.0857 
     47 S47       -77.9660   24.2429  -72.0572 S.3       11 UNK        -0.2512 
     48 C48       -76.8857   25.0118  -70.8054 C.3       11 UNK         0.0225 
     49 N         -77.8774   22.4915  -74.6424 N.am      5 UNK        -0.4615 
     50 C         -77.8148   21.1650  -74.8078 C.2       4 UNK         0.5053 
     51 O         -76.7698   20.5171  -74.7448 O.2       4 UNK        -0.5105 
     52 CA        -79.1418   20.4281  -75.0740 C.3       4 UNK         0.0263 
     53 CB        -79.7120   19.8689  -73.7603 C.3       4 UNK        -0.1981 
     54 N         -80.1528   21.2771  -75.7111 N.am      4 UNK        -0.4224 
     55 C         -80.1428   21.6328  -77.0042 C.2       3 UNK         0.4895 
     56 O         -79.3337   21.2030  -77.8263 O.2       3 UNK        -0.5091 
     57 CA        -81.1986   22.6630  -77.4556 C.3       3 UNK         0.0250 
     58 CB        -82.4416   21.9492  -78.0109 C.3       3 UNK        -0.1996 
     59 N         -81.6088   23.6155  -76.4124 N.am      3 UNK        -0.4254 
     60 C         -80.7764   24.4501  -75.7744 C.2       2 UNK         0.5004 
     61 O         -79.5644   24.4783  -75.9835 O.2       2 UNK        -0.5226 
     62 CA        -81.3847   25.3418  -74.6802 C.3       2 UNK         0.0269 
     63 CB        -81.8355   24.4908  -73.4796 C.3       2 UNK        -0.1926 
     64 N         -80.4378   26.3484  -74.1929 N.am      2 UNK        -0.4687 
     65 C         -80.0429   27.4383  -74.8644 C.2       1 UNK         0.5165 
     66 O         -80.4522   27.7346  -75.9910 O.2       1 UNK        -0.5079 
     67 H67       -76.3163   28.9011  -77.6113 H         1 UNK         0.0900 
     68 H68       -75.3939   29.6784  -76.3158 H         1 UNK         0.0900 
     69 H69       -76.9281   30.3660  -76.8456 H         1 UNK         0.0900 
     70 H70       -78.5318   29.9835  -75.3705 H         1 UNK         0.2959 
     71 H71       -78.4529   27.7935  -73.4506 H         1 UNK         0.1079 
     72 H72       -79.1561   30.1412  -72.8180 H         1 UNK         0.0837 
     73 H73       -80.5111   30.0329  -73.9004 H         1 UNK         0.0837 
     74 H74       -79.8625   30.1466  -70.2830 H         1 UNK         0.0685 
     75 H75       -80.4300   28.6582  -69.5647 H         1 UNK         0.0685 
     76 H76       -79.2146   26.4353  -70.5900 H         1 UNK         0.1434 
     77 H77       -74.9584   26.9437  -70.7649 H         1 UNK         0.1329 
     78 H78       -77.5141   30.3643  -70.4092 H         1 UNK         0.1335 
     79 H79       -73.9699   29.0980  -70.5141 H         1 UNK         0.0680 
     80 H80       -74.9263   30.2351  -69.5896 H         1 UNK         0.0680 
     81 H81       -72.6898   31.2967  -70.9803 H         1 UNK         0.1032 
     82 H82       -73.8326   32.5755  -70.6400 H         1 UNK         0.1032 
     83 H83       -73.7305   33.3122  -73.0369 H         1 UNK         0.0461 
     84 H84       -73.1608   35.2082  -71.8245 H         1 UNK         0.3453 
     85 H85       -71.4990   35.5791  -71.4469 H         1 UNK         0.3453 
     86 H86       -72.2505   30.8699  -73.4122 H         1 UNK         0.2984 
     87 H87       -72.0627   31.3457  -76.8849 H         1 UNK         0.0554 
     88 H88       -69.8413   30.2365  -76.6953 H         1 UNK         0.0847 
     89 H89       -69.7213   30.7346  -75.0079 H         1 UNK         0.0847 
     90 H90       -69.7456   31.9411  -76.2819 H         1 UNK         0.0847 
     91 H91       -72.9311   29.4139  -76.3531 H         1 UNK         0.3141 
     92 H92       -72.1026   26.7734  -74.4570 H         1 UNK         0.0743 
     93 H93       -74.3037   26.4840  -73.3905 H         1 UNK         0.0784 
     94 H94       -73.3700   27.6762  -72.5082 H         1 UNK         0.0784 
     95 H95       -74.6651   28.2009  -73.5742 H         1 UNK         0.0784 
     96 H96       -74.5629   27.2629  -75.8545 H         1 UNK         0.3213 
     97 H97       -74.3540   27.6379  -78.4182 H         1 UNK         0.0855 
     98 H98       -72.4579   25.4423  -79.4247 H         1 UNK         0.0814 
     99 H99       -72.2862   27.1629  -79.7492 H         1 UNK         0.0814 
    100 H100      -73.6625   26.2879  -80.3950 H         1 UNK         0.0814 
    101 H101      -74.5003   24.9643  -77.2461 H         1 UNK         0.3105 
    102 H102      -77.7327   24.3416  -78.6325 H         1 UNK         0.0547 
    103 H103      -76.0258   23.0954  -79.9397 H         1 UNK         0.0837 
    104 H104      -75.1224   22.7474  -78.4740 H         1 UNK         0.0837 
    105 H105      -76.7404   22.0842  -78.6942 H         1 UNK         0.0837 
    106 H106      -77.9418   24.0867  -76.4988 H         1 UNK         0.3020 
    107 H107      -75.9738   22.8330  -73.8491 H         1 UNK         0.1245 
    108 H108      -77.7789   25.2842  -74.2061 H         1 UNK         0.0781 
    109 H109      -76.2328   25.2483  -73.4140 H         1 UNK         0.0781 
    110 H110      -75.8478   24.7492  -71.0162 H         1 UNK         0.0836 
    111 H111      -77.1195   24.5776  -69.8326 H         1 UNK         0.0836 
    112 H112      -78.7634   22.9607  -74.7726 H         1 UNK         0.3022 
    113 H113      -78.9257   19.5880  -75.7378 H         1 UNK         0.0747 
    114 H114      -80.6182   19.2887  -73.9353 H         1 UNK         0.0793 
    115 H115      -78.9938   19.2064  -73.2749 H         1 UNK         0.0793 
    116 H116      -79.9513   20.6637  -73.0523 H         1 UNK         0.0793 
    117 H117      -80.8709   21.6607  -75.1146 H         1 UNK         0.3047 
    118 H118      -80.7496   23.2437  -78.2644 H         1 UNK         0.0822 
    119 H119      -83.1515   22.6592  -78.4357 H         1 UNK         0.0807 
    120 H120      -82.9579   21.3766  -77.2393 H         1 UNK         0.0807 
    121 H121      -82.1694   21.2530  -78.8057 H         1 UNK         0.0807 
    122 H122      -82.5924   23.6358  -76.1824 H         1 UNK         0.2946 
    123 H123      -82.2498   25.8574  -75.1032 H         1 UNK         0.1144 
    124 H124      -82.2677   25.1128  -72.6952 H         1 UNK         0.0793 
    125 H125      -81.0041   23.9353  -73.0431 H         1 UNK         0.0793 
    126 H126      -82.5985   23.7662  -73.7661 H         1 UNK         0.0793 
    127 H127      -80.0530   26.1864  -73.2738 H         1 UNK         0.2896 
@<TRIPOS>BOND
     1    1    2 1    
     2    1   67 1    
     3    1   68 1    
     4    1   69 1    
     5    2    3 2    
     6    2    4 am   BACKBONE|DICT|INTERRES
     7    4    5 1    
     8    4   70 1    
     9    5    6 1    
    10    5   65 1    
    11    5   71 1    
    12    6    7 1    
    13    6   72 1    
    14    6   73 1    
    15    7    8 1    
    16    8    9 1    
    17    8   74 1    
    18    8   75 1    
    19    9   10 ar   
    20    9   14 ar   
    21   10   11 ar   
    22   10   76 1    
    23   11   12 ar   
    24   11   48 1    
    25   12   13 ar   
    26   12   77 1    
    27   13   14 ar   
    28   13   15 1    
    29   14   78 1    
    30   15   16 1    
    31   15   79 1    
    32   15   80 1    
    33   16   17 1    
    34   17   18 1    
    35   17   81 1    
    36   17   82 1    
    37   18   19 1    
    38   18   22 1    
    39   18   83 1    
    40   19   20 am   BACKBONE|DICT|INTERRES
    41   19   21 2    
    42   20   84 1    
    43   20   85 1    
    44   22   23 am   BACKBONE|DICT|INTERRES
    45   22   86 1    
    46   23   24 2    
    47   23   25 1    
    48   25   26 1    
    49   25   27 1    
    50   25   87 1    
    51   26   88 1    
    52   26   89 1    
    53   26   90 1    
    54   27   28 am   BACKBONE|DICT|INTERRES
    55   27   91 1    
    56   28   29 2    
    57   28   30 1    
    58   30   31 1    
    59   30   32 1    
    60   30   92 1    
    61   31   93 1    
    62   31   94 1    
    63   31   95 1    
    64   32   33 am   BACKBONE|DICT|INTERRES
    65   32   96 1    
    66   33   34 2    
    67   33   35 1    
    68   35   36 1    
    69   35   37 1    
    70   35   97 1    
    71   36   98 1    
    72   36   99 1    
    73   36  100 1    
    74   37   38 am   BACKBONE|DICT|INTERRES
    75   37  101 1    
    76   38   39 2    
    77   38   40 1    
    78   40   41 1    
    79   40   42 1    
    80   40  102 1    
    81   41  103 1    
    82   41  104 1    
    83   41  105 1    
    84   42   43 am   BACKBONE|DICT|INTERRES
    85   42  106 1    
    86   43   44 2    
    87   43   45 1    
    88   45   46 1    
    89   45   49 1    
    90   45  107 1    
    91   46   47 1    
    92   46  108 1    
    93   46  109 1    
    94   47   48 1    
    95   48  110 1    
    96   48  111 1    
    97   49   50 am   BACKBONE|DICT|INTERRES
    98   49  112 1    
    99   50   51 2    
   100   50   52 1    
   101   52   53 1    
   102   52   54 1    
   103   52  113 1    
   104   53  114 1    
   105   53  115 1    
   106   53  116 1    
   107   54   55 am   BACKBONE|DICT|INTERRES
   108   54  117 1    
   109   55   56 2    
   110   55   57 1    
   111   57   58 1    
   112   57   59 1    
   113   57  118 1    
   114   58  119 1    
   115   58  120 1    
   116   58  121 1    
   117   59   60 am   BACKBONE|DICT|INTERRES
   118   59  122 1    
   119   60   61 2    
   120   60   62 1    
   121   62   63 1    
   122   62   64 1    
   123   62  123 1    
   124   63  124 1    
   125   63  125 1    
   126   63  126 1    
   127   64   65 am   BACKBONE|DICT|INTERRES
   128   64  127 1    
   129   65   66 2    
@<TRIPOS>SUBSTRUCTURE
     1 UNK         1 GROUP             0       ****    0 ROOT    
