@<TRIPOS>MOLECULE
3R135
127   129    1
SMALL
USER_CHARGES


@<TRIPOS>ATOM
      1 CA        -80.7293   32.8046  -74.5682 C.3       0 UNK        -0.1998 
      2 C         -80.3462   31.3518  -74.3322 C.2       0 UNK         0.4909 
      3 O         -79.7254   30.7383  -75.1988 O.2       0 UNK        -0.5240 
      4 N         -80.7011   30.8073  -73.1608 N.am      1 UNK        -0.4739 
      5 CA        -80.4425   29.4272  -72.7247 C.3       1 UNK         0.0864 
      6 C6        -80.9419   29.1944  -71.2763 C.3       11 UNK        -0.0881 
      7 S7        -80.1795   30.3719  -70.1004 S.3       11 UNK        -0.2682 
      8 C8        -79.0664   29.3186  -69.1156 C.3       11 UNK         0.0289 
      9 C9        -78.0779   28.5460  -69.9769 C.ar      11 UNK        -0.0687 
     10 C10       -78.2170   27.1630  -70.1193 C.ar      11 UNK        -0.0823 
     11 C11       -77.3211   26.4409  -70.9082 C.ar      11 UNK        -0.0830 
     12 C12       -76.2910   27.1112  -71.5697 C.ar      11 UNK        -0.1021 
     13 C13       -76.1284   28.4920  -71.4306 C.ar      11 UNK        -0.0753 
     14 C14       -77.0227   29.2040  -70.6194 C.ar      11 UNK        -0.0933 
     15 C15       -74.9548   29.1636  -72.1416 C.3       11 UNK         0.0166 
     16 S16       -75.2599   30.8662  -72.7196 S.3       11 UNK        -0.2615 
     17 C17       -76.6607   30.6557  -73.8751 C.3       11 UNK        -0.0865 
     18 CA        -76.2728   30.5707  -75.3739 C.3       10 UNK         0.0862 
     19 C         -75.5659   31.8572  -75.8972 C.2       10 UNK         0.5551 
     20 N         -74.3496   31.7871  -76.4267 N.am      10 UNK        -0.7319 
     21 O         -76.1420   32.9406  -75.8332 O.2       10 UNK        -0.5018 
     22 N         -75.5872   29.3081  -75.6808 N.am      10 UNK        -0.4509 
     23 C         -75.5556   28.7386  -76.8915 C.2       10 UNK         0.4899 
     24 O         -76.1686   29.1758  -77.8666 O.2       10 UNK        -0.4839 
     25 CA        -74.6947   27.4662  -77.0380 C.3       9 UNK         0.0222 
     26 CB        -74.2988   27.1866  -78.5028 C.3       9 UNK        -0.1966 
     27 N         -73.4998   27.4226  -76.1850 N.am      9 UNK        -0.4218 
     28 C         -72.5265   28.3448  -76.0834 C.2       9 UNK         0.5020 
     29 O         -72.5610   29.4464  -76.6333 O.2       9 UNK        -0.5274 
     30 CA        -71.3054   27.9891  -75.2124 C.3       8 UNK         0.0270 
     31 CB        -71.4506   28.5982  -73.8080 C.3       8 UNK        -0.1976 
     32 N         -71.0747   26.5470  -75.0905 N.am      8 UNK        -0.4313 
     33 C         -70.7189   25.7370  -76.0981 C.2       8 UNK         0.5041 
     34 O         -70.4202   26.1372  -77.2238 O.2       8 UNK        -0.5577 
     35 CA        -70.7188   24.2218  -75.8166 C.3       7 UNK         0.0284 
     36 CB        -69.2838   23.7214  -75.5824 C.3       7 UNK        -0.1958 
     37 N         -71.5660   23.7996  -74.6918 N.am      7 UNK        -0.4454 
     38 C         -72.8925   23.9691  -74.6056 C.2       7 UNK         0.5089 
     39 O         -73.5700   24.5770  -75.4389 O.2       7 UNK        -0.5125 
     40 CA        -73.5635   23.4122  -73.3475 C.3       6 UNK         0.0408 
     41 CB        -73.3764   24.3700  -72.1569 C.3       6 UNK        -0.1791 
     42 N         -74.9835   23.2130  -73.6250 N.am      6 UNK        -0.4762 
     43 C         -75.7711   22.3207  -73.0133 C.2       6 UNK         0.5007 
     44 O         -75.3965   21.6277  -72.0659 O.2       6 UNK        -0.5032 
     45 CA        -77.2138   22.1476  -73.5378 C.3       5 UNK         0.0783 
     46 C46       -78.2683   22.7059  -72.5488 C.3       11 UNK        -0.0857 
     47 S47       -78.3922   24.5243  -72.5448 S.3       11 UNK        -0.2512 
     48 C48       -77.4598   24.9363  -71.0463 C.3       11 UNK         0.0225 
     49 N         -77.4270   22.6327  -74.9098 N.am      5 UNK        -0.4615 
     50 C         -76.9561   22.0120  -76.0014 C.2       4 UNK         0.5053 
     51 O         -76.2004   21.0413  -75.9533 O.2       4 UNK        -0.5105 
     52 CA        -77.4286   22.5054  -77.3756 C.3       4 UNK         0.0263 
     53 CB        -78.6678   21.6975  -77.8149 C.3       4 UNK        -0.1981 
     54 N         -77.7095   23.9438  -77.4153 N.am      4 UNK        -0.4224 
     55 C         -77.8572   24.6572  -78.5394 C.2       3 UNK         0.4895 
     56 O         -77.7412   24.1778  -79.6690 O.2       3 UNK        -0.5091 
     57 CA        -78.2129   26.1486  -78.3769 C.3       3 UNK         0.0250 
     58 CB        -78.4904   26.8482  -79.7210 C.3       3 UNK        -0.1996 
     59 N         -79.3565   26.3621  -77.4845 N.am      3 UNK        -0.4254 
     60 C         -79.2870   26.3746  -76.1489 C.2       2 UNK         0.5004 
     61 O         -78.2505   26.1381  -75.5232 O.2       2 UNK        -0.5226 
     62 CA        -80.5851   26.6627  -75.3884 C.3       2 UNK         0.0269 
     63 CB        -81.2880   25.3639  -74.9563 C.3       2 UNK        -0.1926 
     64 N         -80.2567   27.4868  -74.2281 N.am      2 UNK        -0.4687 
     65 C         -81.0681   28.4153  -73.7092 C.2       1 UNK         0.5165 
     66 O         -82.2610   28.5225  -74.0070 O.2       1 UNK        -0.5079 
     67 H67       -81.2477   33.2348  -73.7115 H         1 UNK         0.0900 
     68 H68       -81.3836   32.8831  -75.4360 H         1 UNK         0.0900 
     69 H69       -79.8368   33.4002  -74.7589 H         1 UNK         0.0900 
     70 H70       -81.2073   31.3705  -72.4926 H         1 UNK         0.2959 
     71 H71       -79.3609   29.2839  -72.7326 H         1 UNK         0.1079 
     72 H72       -80.7430   28.1702  -70.9574 H         1 UNK         0.0837 
     73 H73       -82.0253   29.3181  -71.2224 H         1 UNK         0.0837 
     74 H74       -79.6682   28.6394  -68.5096 H         1 UNK         0.0685 
     75 H75       -78.5167   29.9468  -68.4134 H         1 UNK         0.0685 
     76 H76       -79.0234   26.6464  -69.6167 H         1 UNK         0.1434 
     77 H77       -75.6126   26.5490  -72.1941 H         1 UNK         0.1329 
     78 H78       -76.9091   30.2717  -70.4925 H         1 UNK         0.1335 
     79 H79       -74.6461   28.5655  -72.9993 H         1 UNK         0.0680 
     80 H80       -74.1051   29.1807  -71.4580 H         1 UNK         0.0680 
     81 H81       -77.2361   29.7722  -73.6005 H         1 UNK         0.1032 
     82 H82       -77.3395   31.4960  -73.7212 H         1 UNK         0.1032 
     83 H83       -77.2151   30.5402  -75.9227 H         1 UNK         0.0461 
     84 H84       -73.9116   32.6288  -76.7643 H         1 UNK         0.3453 
     85 H85       -73.8534   30.9031  -76.4877 H         1 UNK         0.3453 
     86 H86       -75.0305   28.9101  -74.9416 H         1 UNK         0.2984 
     87 H87       -75.3224   26.6398  -76.7017 H         1 UNK         0.0554 
     88 H88       -73.7355   26.2572  -78.5888 H         1 UNK         0.0847 
     89 H89       -73.6837   27.9896  -78.9106 H         1 UNK         0.0847 
     90 H90       -75.1764   27.0907  -79.1430 H         1 UNK         0.0847 
     91 H91       -73.3640   26.5342  -75.7113 H         1 UNK         0.3141 
     92 H92       -70.4285   28.4319  -75.6896 H         1 UNK         0.0743 
     93 H93       -71.6612   29.6676  -73.8627 H         1 UNK         0.0784 
     94 H94       -72.2611   28.1337  -73.2465 H         1 UNK         0.0784 
     95 H95       -70.5338   28.4807  -73.2299 H         1 UNK         0.0784 
     96 H96       -71.2657   26.1268  -74.1931 H         1 UNK         0.3213 
     97 H97       -71.1075   23.7352  -76.7138 H         1 UNK         0.0855 
     98 H98       -68.8488   24.1493  -74.6783 H         1 UNK         0.0814 
     99 H99       -68.6342   23.9934  -76.4158 H         1 UNK         0.0814 
    100 H100      -69.2502   22.6355  -75.4920 H         1 UNK         0.0814 
    101 H101      -71.0995   23.3001  -73.9474 H         1 UNK         0.3105 
    102 H102      -73.1069   22.4475  -73.1155 H         1 UNK         0.0547 
    103 H103      -73.9220   24.0297  -71.2769 H         1 UNK         0.0837 
    104 H104      -72.3258   24.4401  -71.8733 H         1 UNK         0.0837 
    105 H105      -73.7132   25.3780  -72.3943 H         1 UNK         0.0837 
    106 H106      -75.3345   23.7258  -74.4248 H         1 UNK         0.3020 
    107 H107      -77.3669   21.0656  -73.5652 H         1 UNK         0.1245 
    108 H108      -78.0895   22.3408  -71.5353 H         1 UNK         0.0781 
    109 H109      -79.2513   22.3193  -72.8219 H         1 UNK         0.0781 
    110 H110      -76.4715   24.4768  -71.0852 H         1 UNK         0.0836 
    111 H111      -77.9638   24.5153  -70.1749 H         1 UNK         0.0836 
    112 H112      -78.0501   23.4220  -74.9943 H         1 UNK         0.3022 
    113 H113      -76.6155   22.3025  -78.0763 H         1 UNK         0.0747 
    114 H114      -78.9391   21.9025  -78.8503 H         1 UNK         0.0793 
    115 H115      -78.4832   20.6245  -77.7434 H         1 UNK         0.0793 
    116 H116      -79.5343   21.9221  -77.1918 H         1 UNK         0.0793 
    117 H117      -77.7662   24.4452  -76.5349 H         1 UNK         0.3047 
    118 H118      -77.3397   26.6300  -77.9392 H         1 UNK         0.0822 
    119 H119      -77.6359   26.7584  -80.3932 H         1 UNK         0.0807 
    120 H120      -78.6736   27.9138  -79.5807 H         1 UNK         0.0807 
    121 H121      -79.3547   26.4200  -80.2300 H         1 UNK         0.0807 
    122 H122      -80.2495   26.5132  -77.9319 H         1 UNK         0.2946 
    123 H123      -81.2501   27.2254  -76.0484 H         1 UNK         0.1144 
    124 H124      -81.5395   24.7496  -75.8217 H         1 UNK         0.0793 
    125 H125      -82.2176   25.5739  -74.4272 H         1 UNK         0.0793 
    126 H126      -80.6614   24.7608  -74.3010 H         1 UNK         0.0793 
    127 H127      -79.2839   27.4378  -73.9496 H         1 UNK         0.2896 
@<TRIPOS>BOND
     1    1    2 1    
     2    1   67 1    
     3    1   68 1    
     4    1   69 1    
     5    2    3 2    
     6    2    4 am   BACKBONE|DICT|INTERRES
     7    4    5 1    
     8    4   70 1    
     9    5    6 1    
    10    5   65 1    
    11    5   71 1    
    12    6    7 1    
    13    6   72 1    
    14    6   73 1    
    15    7    8 1    
    16    8    9 1    
    17    8   74 1    
    18    8   75 1    
    19    9   10 ar   
    20    9   14 ar   
    21   10   11 ar   
    22   10   76 1    
    23   11   12 ar   
    24   11   48 1    
    25   12   13 ar   
    26   12   77 1    
    27   13   14 ar   
    28   13   15 1    
    29   14   78 1    
    30   15   16 1    
    31   15   79 1    
    32   15   80 1    
    33   16   17 1    
    34   17   18 1    
    35   17   81 1    
    36   17   82 1    
    37   18   19 1    
    38   18   22 1    
    39   18   83 1    
    40   19   20 am   BACKBONE|DICT|INTERRES
    41   19   21 2    
    42   20   84 1    
    43   20   85 1    
    44   22   23 am   BACKBONE|DICT|INTERRES
    45   22   86 1    
    46   23   24 2    
    47   23   25 1    
    48   25   26 1    
    49   25   27 1    
    50   25   87 1    
    51   26   88 1    
    52   26   89 1    
    53   26   90 1    
    54   27   28 am   BACKBONE|DICT|INTERRES
    55   27   91 1    
    56   28   29 2    
    57   28   30 1    
    58   30   31 1    
    59   30   32 1    
    60   30   92 1    
    61   31   93 1    
    62   31   94 1    
    63   31   95 1    
    64   32   33 am   BACKBONE|DICT|INTERRES
    65   32   96 1    
    66   33   34 2    
    67   33   35 1    
    68   35   36 1    
    69   35   37 1    
    70   35   97 1    
    71   36   98 1    
    72   36   99 1    
    73   36  100 1    
    74   37   38 am   BACKBONE|DICT|INTERRES
    75   37  101 1    
    76   38   39 2    
    77   38   40 1    
    78   40   41 1    
    79   40   42 1    
    80   40  102 1    
    81   41  103 1    
    82   41  104 1    
    83   41  105 1    
    84   42   43 am   BACKBONE|DICT|INTERRES
    85   42  106 1    
    86   43   44 2    
    87   43   45 1    
    88   45   46 1    
    89   45   49 1    
    90   45  107 1    
    91   46   47 1    
    92   46  108 1    
    93   46  109 1    
    94   47   48 1    
    95   48  110 1    
    96   48  111 1    
    97   49   50 am   BACKBONE|DICT|INTERRES
    98   49  112 1    
    99   50   51 2    
   100   50   52 1    
   101   52   53 1    
   102   52   54 1    
   103   52  113 1    
   104   53  114 1    
   105   53  115 1    
   106   53  116 1    
   107   54   55 am   BACKBONE|DICT|INTERRES
   108   54  117 1    
   109   55   56 2    
   110   55   57 1    
   111   57   58 1    
   112   57   59 1    
   113   57  118 1    
   114   58  119 1    
   115   58  120 1    
   116   58  121 1    
   117   59   60 am   BACKBONE|DICT|INTERRES
   118   59  122 1    
   119   60   61 2    
   120   60   62 1    
   121   62   63 1    
   122   62   64 1    
   123   62  123 1    
   124   63  124 1    
   125   63  125 1    
   126   63  126 1    
   127   64   65 am   BACKBONE|DICT|INTERRES
   128   64  127 1    
   129   65   66 2    
@<TRIPOS>SUBSTRUCTURE
     1 UNK         1 GROUP             0       ****    0 ROOT    
