@<TRIPOS>MOLECULE
3R135
127   129    1
SMALL
USER_CHARGES


@<TRIPOS>ATOM
      1 CA        -77.3678   31.2445  -75.9531 C.3       0 UNK        -0.1998 
      2 C         -77.4875   29.8965  -75.2578 C.2       0 UNK         0.4909 
      3 O         -76.4739   29.2490  -75.0008 O.2       0 UNK        -0.5240 
      4 N         -78.7214   29.4770  -74.9467 N.am      1 UNK        -0.4739 
      5 CA        -79.0255   28.2198  -74.2515 C.3       1 UNK         0.0864 
      6 C6        -80.4625   28.2578  -73.6652 C.3       11 UNK        -0.0881 
      7 S7        -80.8736   26.8799  -72.5366 S.3       11 UNK        -0.2682 
      8 C8        -80.4037   27.5470  -70.9072 C.3       11 UNK         0.0289 
      9 C9        -78.9000   27.7503  -70.7801 C.ar      11 UNK        -0.0687 
     10 C10       -78.0401   26.6479  -70.7343 C.ar      11 UNK        -0.0823 
     11 C11       -76.6562   26.8250  -70.6343 C.ar      11 UNK        -0.0830 
     12 C12       -76.1354   28.1222  -70.5718 C.ar      11 UNK        -0.1021 
     13 C13       -76.9855   29.2325  -70.6146 C.ar      11 UNK        -0.0753 
     14 C14       -78.3665   29.0407  -70.7132 C.ar      11 UNK        -0.0933 
     15 C15       -76.4099   30.6394  -70.5856 C.3       11 UNK         0.0166 
     16 S16       -76.2611   31.2728  -72.2805 S.3       11 UNK        -0.2615 
     17 C17       -74.9264   32.5114  -72.1661 C.3       11 UNK        -0.0865 
     18 CA        -73.4881   31.9493  -72.3680 C.3       10 UNK         0.0862 
     19 C         -72.8687   31.4579  -71.0261 C.2       10 UNK         0.5551 
     20 N         -72.4381   32.3787  -70.1742 N.am      10 UNK        -0.7319 
     21 O         -72.8047   30.2650  -70.7343 O.2       10 UNK        -0.5018 
     22 N         -73.4136   30.9474  -73.4470 N.am      10 UNK        -0.4509 
     23 C         -72.2670   30.4554  -73.9344 C.2       10 UNK         0.4899 
     24 O         -71.1589   30.9446  -73.7094 O.2       10 UNK        -0.4839 
     25 CA        -72.3589   29.1818  -74.7860 C.3       9 UNK         0.0222 
     26 CB        -72.5265   27.9507  -73.8825 C.3       9 UNK        -0.1966 
     27 N         -73.4395   29.1992  -75.7690 N.am      9 UNK        -0.4218 
     28 C         -73.4223   29.8761  -76.9212 C.2       9 UNK         0.5020 
     29 O         -72.5399   30.6772  -77.2361 O.2       9 UNK        -0.5274 
     30 CA        -74.5415   29.5251  -77.9228 C.3       8 UNK         0.0270 
     31 CB        -74.6716   30.5599  -79.0556 C.3       8 UNK        -0.1976 
     32 N         -74.3297   28.1956  -78.5050 N.am      8 UNK        -0.4313 
     33 C         -74.5296   27.0380  -77.8620 C.2       8 UNK         0.5041 
     34 O         -74.9735   26.9573  -76.7125 O.2       8 UNK        -0.5577 
     35 CA        -74.1543   25.7538  -78.6089 C.3       7 UNK         0.0284 
     36 CB        -72.6241   25.6013  -78.7121 C.3       7 UNK        -0.1958 
     37 N         -74.7206   24.6432  -77.8540 N.am      7 UNK        -0.4454 
     38 C         -74.9042   23.3874  -78.2660 C.2       7 UNK         0.5089 
     39 O         -74.5877   22.9913  -79.3888 O.2       7 UNK        -0.5125 
     40 CA        -75.5796   22.4063  -77.2849 C.3       6 UNK         0.0408 
     41 CB        -74.7560   21.1129  -77.1134 C.3       6 UNK        -0.1791 
     42 N         -75.9553   22.9786  -75.9802 N.am      6 UNK        -0.4762 
     43 C         -75.1557   23.3673  -74.9713 C.2       6 UNK         0.5007 
     44 O         -73.9268   23.3367  -75.0288 O.2       6 UNK        -0.5032 
     45 CA        -75.8338   23.8797  -73.6790 C.3       5 UNK         0.0783 
     46 C46       -75.4952   25.3708  -73.3800 C.3       11 UNK        -0.0857 
     47 S47       -74.4746   25.5674  -71.8835 S.3       11 UNK        -0.2512 
     48 C48       -75.7344   25.6111  -70.5634 C.3       11 UNK         0.0225 
     49 N         -77.2847   23.6651  -73.6872 N.am      5 UNK        -0.4615 
     50 C         -77.9006   22.5246  -73.3542 C.2       4 UNK         0.5053 
     51 O         -77.3032   21.5054  -73.0090 O.2       4 UNK        -0.5105 
     52 CA        -79.4343   22.5081  -73.4199 C.3       4 UNK         0.0263 
     53 CB        -80.0317   23.0704  -72.1201 C.3       4 UNK        -0.1981 
     54 N         -79.9520   23.2720  -74.5609 N.am      4 UNK        -0.4224 
     55 C         -80.7508   22.7670  -75.5137 C.2       3 UNK         0.4895 
     56 O         -81.1147   21.5907  -75.5495 O.2       3 UNK        -0.5091 
     57 CA        -81.2569   23.7231  -76.6129 C.3       3 UNK         0.0250 
     58 CB        -82.6628   24.2376  -76.2623 C.3       3 UNK        -0.1996 
     59 N         -80.3807   24.8691  -76.8579 N.am      3 UNK        -0.4254 
     60 C         -79.1535   24.7986  -77.3900 C.2       2 UNK         0.5004 
     61 O         -78.6515   23.7581  -77.8126 O.2       2 UNK        -0.5226 
     62 CA        -78.3234   26.0955  -77.4198 C.3       2 UNK         0.0269 
     63 CB        -78.2957   26.6985  -78.8328 C.3       2 UNK        -0.1926 
     64 N         -78.7299   27.1297  -76.4576 N.am      2 UNK        -0.4687 
     65 C         -78.7639   26.9722  -75.1250 C.2       1 UNK         0.5165 
     66 O         -78.5967   25.8805  -74.5816 O.2       1 UNK        -0.5079 
     67 H67       -76.4804   31.7708  -75.6013 H         1 UNK         0.0900 
     68 H68       -77.2833   31.1112  -77.0309 H         1 UNK         0.0900 
     69 H69       -78.2323   31.8768  -75.7518 H         1 UNK         0.0900 
     70 H70       -79.5149   30.0567  -75.1809 H         1 UNK         0.2959 
     71 H71       -78.3209   28.1449  -73.4213 H         1 UNK         0.1079 
     72 H72       -81.1983   28.2633  -74.4713 H         1 UNK         0.0837 
     73 H73       -80.6143   29.1920  -73.1220 H         1 UNK         0.0837 
     74 H74       -80.7344   26.8506  -70.1355 H         1 UNK         0.0685 
     75 H75       -80.9430   28.4787  -70.7289 H         1 UNK         0.0685 
     76 H76       -78.4537   25.6507  -70.7825 H         1 UNK         0.1434 
     77 H77       -75.0653   28.2676  -70.5027 H         1 UNK         0.1329 
     78 H78       -79.0221   29.8996  -70.7583 H         1 UNK         0.1335 
     79 H79       -75.4395   30.6344  -70.0905 H         1 UNK         0.0680 
     80 H80       -77.0513   31.3030  -70.0039 H         1 UNK         0.0680 
     81 H81       -75.1210   33.2456  -72.9492 H         1 UNK         0.1032 
     82 H82       -75.0208   33.0671  -71.2310 H         1 UNK         0.1032 
     83 H83       -72.8667   32.7861  -72.6943 H         1 UNK         0.0461 
     84 H84       -72.4835   33.3611  -70.3964 H         1 UNK         0.3453 
     85 H85       -72.0438   32.0834  -69.2947 H         1 UNK         0.3453 
     86 H86       -74.2797   30.4717  -73.6631 H         1 UNK         0.2984 
     87 H87       -71.4156   29.0735  -75.3257 H         1 UNK         0.0554 
     88 H88       -71.7188   27.8857  -73.1522 H         1 UNK         0.0847 
     89 H89       -72.5195   27.0258  -74.4599 H         1 UNK         0.0847 
     90 H90       -73.4639   27.9905  -73.3260 H         1 UNK         0.0847 
     91 H91       -74.2077   28.5456  -75.6323 H         1 UNK         0.3141 
     92 H92       -75.4860   29.5112  -77.3814 H         1 UNK         0.0743 
     93 H93       -74.8388   31.5591  -78.6511 H         1 UNK         0.0784 
     94 H94       -73.7728   30.6036  -79.6720 H         1 UNK         0.0784 
     95 H95       -75.5150   30.3302  -79.7070 H         1 UNK         0.0784 
     96 H96       -73.9309   28.1728  -79.4327 H         1 UNK         0.3213 
     97 H97       -74.6027   25.7783  -79.6043 H         1 UNK         0.0855 
     98 H98       -72.1577   25.5767  -77.7261 H         1 UNK         0.0814 
     99 H99       -72.1786   26.4295  -79.2641 H         1 UNK         0.0814 
    100 H100      -72.3477   24.6850  -79.2338 H         1 UNK         0.0814 
    101 H101      -75.0197   24.9105  -76.9233 H         1 UNK         0.3105 
    102 H102      -76.5206   22.1223  -77.7572 H         1 UNK         0.0547 
    103 H103      -75.2518   20.4115  -76.4426 H         1 UNK         0.0837 
    104 H104      -73.7603   21.3126  -76.7170 H         1 UNK         0.0837 
    105 H105      -74.6238   20.6054  -78.0697 H         1 UNK         0.0837 
    106 H106      -76.9514   23.0709  -75.8336 H         1 UNK         0.3020 
    107 H107      -75.4192   23.2582  -72.8818 H         1 UNK         0.1245 
    108 H108      -76.3926   25.9761  -73.2547 H         1 UNK         0.0781 
    109 H109      -74.9620   25.8463  -74.2057 H         1 UNK         0.0781 
    110 H110      -75.2262   25.6167  -69.5983 H         1 UNK         0.0836 
    111 H111      -76.3085   24.6838  -70.5991 H         1 UNK         0.0836 
    112 H112      -77.8398   24.4767  -73.9582 H         1 UNK         0.3022 
    113 H113      -79.7318   21.4601  -73.4961 H         1 UNK         0.0747 
    114 H114      -81.1182   22.9830  -72.1153 H         1 UNK         0.0793 
    115 H115      -79.6578   22.5307  -71.2490 H         1 UNK         0.0793 
    116 H116      -79.7827   24.1227  -71.9868 H         1 UNK         0.0793 
    117 H117      -79.6827   24.2497  -74.6159 H         1 UNK         0.3047 
    118 H118      -81.3228   23.1481  -77.5392 H         1 UNK         0.0822 
    119 H119      -83.0750   24.8481  -77.0659 H         1 UNK         0.0807 
    120 H120      -82.6572   24.8378  -75.3512 H         1 UNK         0.0807 
    121 H121      -83.3533   23.4083  -76.1016 H         1 UNK         0.0807 
    122 H122      -80.7047   25.7697  -76.5370 H         1 UNK         0.2946 
    123 H123      -77.3060   25.8052  -77.1548 H         1 UNK         0.1144 
    124 H124      -77.6106   27.5449  -78.8890 H         1 UNK         0.0793 
    125 H125      -79.2831   27.0411  -79.1442 H         1 UNK         0.0793 
    126 H126      -77.9579   25.9632  -79.5646 H         1 UNK         0.0793 
    127 H127      -78.8794   28.0583  -76.8238 H         1 UNK         0.2896 
@<TRIPOS>BOND
     1    1    2 1    
     2    1   67 1    
     3    1   68 1    
     4    1   69 1    
     5    2    3 2    
     6    2    4 am   BACKBONE|DICT|INTERRES
     7    4    5 1    
     8    4   70 1    
     9    5    6 1    
    10    5   65 1    
    11    5   71 1    
    12    6    7 1    
    13    6   72 1    
    14    6   73 1    
    15    7    8 1    
    16    8    9 1    
    17    8   74 1    
    18    8   75 1    
    19    9   10 ar   
    20    9   14 ar   
    21   10   11 ar   
    22   10   76 1    
    23   11   12 ar   
    24   11   48 1    
    25   12   13 ar   
    26   12   77 1    
    27   13   14 ar   
    28   13   15 1    
    29   14   78 1    
    30   15   16 1    
    31   15   79 1    
    32   15   80 1    
    33   16   17 1    
    34   17   18 1    
    35   17   81 1    
    36   17   82 1    
    37   18   19 1    
    38   18   22 1    
    39   18   83 1    
    40   19   20 am   BACKBONE|DICT|INTERRES
    41   19   21 2    
    42   20   84 1    
    43   20   85 1    
    44   22   23 am   BACKBONE|DICT|INTERRES
    45   22   86 1    
    46   23   24 2    
    47   23   25 1    
    48   25   26 1    
    49   25   27 1    
    50   25   87 1    
    51   26   88 1    
    52   26   89 1    
    53   26   90 1    
    54   27   28 am   BACKBONE|DICT|INTERRES
    55   27   91 1    
    56   28   29 2    
    57   28   30 1    
    58   30   31 1    
    59   30   32 1    
    60   30   92 1    
    61   31   93 1    
    62   31   94 1    
    63   31   95 1    
    64   32   33 am   BACKBONE|DICT|INTERRES
    65   32   96 1    
    66   33   34 2    
    67   33   35 1    
    68   35   36 1    
    69   35   37 1    
    70   35   97 1    
    71   36   98 1    
    72   36   99 1    
    73   36  100 1    
    74   37   38 am   BACKBONE|DICT|INTERRES
    75   37  101 1    
    76   38   39 2    
    77   38   40 1    
    78   40   41 1    
    79   40   42 1    
    80   40  102 1    
    81   41  103 1    
    82   41  104 1    
    83   41  105 1    
    84   42   43 am   BACKBONE|DICT|INTERRES
    85   42  106 1    
    86   43   44 2    
    87   43   45 1    
    88   45   46 1    
    89   45   49 1    
    90   45  107 1    
    91   46   47 1    
    92   46  108 1    
    93   46  109 1    
    94   47   48 1    
    95   48  110 1    
    96   48  111 1    
    97   49   50 am   BACKBONE|DICT|INTERRES
    98   49  112 1    
    99   50   51 2    
   100   50   52 1    
   101   52   53 1    
   102   52   54 1    
   103   52  113 1    
   104   53  114 1    
   105   53  115 1    
   106   53  116 1    
   107   54   55 am   BACKBONE|DICT|INTERRES
   108   54  117 1    
   109   55   56 2    
   110   55   57 1    
   111   57   58 1    
   112   57   59 1    
   113   57  118 1    
   114   58  119 1    
   115   58  120 1    
   116   58  121 1    
   117   59   60 am   BACKBONE|DICT|INTERRES
   118   59  122 1    
   119   60   61 2    
   120   60   62 1    
   121   62   63 1    
   122   62   64 1    
   123   62  123 1    
   124   63  124 1    
   125   63  125 1    
   126   63  126 1    
   127   64   65 am   BACKBONE|DICT|INTERRES
   128   64  127 1    
   129   65   66 2    
@<TRIPOS>SUBSTRUCTURE
     1 UNK         1 GROUP             0       ****    0 ROOT    
