@<TRIPOS>MOLECULE
3R135
127   129    1
SMALL
USER_CHARGES


@<TRIPOS>ATOM
      1 CA        -86.4401   28.4855  -72.9548 C.3       0 UNK        -0.1998 
      2 C         -85.0864   28.1777  -73.5774 C.2       0 UNK         0.4909 
      3 O         -85.0215   27.4726  -74.5855 O.2       0 UNK        -0.5240 
      4 N         -84.0065   28.7083  -72.9913 N.am      1 UNK        -0.4739 
      5 CA        -82.6217   28.4573  -73.4021 C.3       1 UNK         0.0864 
      6 C6        -81.6708   29.5735  -72.8961 C.3       11 UNK        -0.0881 
      7 S7        -81.6313   29.7679  -71.0753 S.3       11 UNK        -0.2682 
      8 C8        -80.1171   30.7527  -70.8251 C.3       11 UNK         0.0289 
      9 C9        -78.8763   30.0369  -71.3393 C.ar      11 UNK        -0.0687 
     10 C10       -78.2285   30.4950  -72.4898 C.ar      11 UNK        -0.0823 
     11 C11       -77.1264   29.8081  -73.0041 C.ar      11 UNK        -0.0830 
     12 C12       -76.6703   28.6555  -72.3556 C.ar      11 UNK        -0.1021 
     13 C13       -77.2829   28.2113  -71.1791 C.ar      11 UNK        -0.0753 
     14 C14       -78.3869   28.9072  -70.6771 C.ar      11 UNK        -0.0933 
     15 C15       -76.7799   26.9649  -70.4621 C.3       11 UNK         0.0166 
     16 S16       -75.2937   27.2944  -69.4596 S.3       11 UNK        -0.2615 
     17 C17       -73.9637   27.1690  -70.7048 C.3       11 UNK        -0.0865 
     18 CA        -73.3552   28.5549  -71.0892 C.3       10 UNK         0.0862 
     19 C         -72.1261   28.9681  -70.2248 C.2       10 UNK         0.5551 
     20 N         -72.1645   28.7170  -68.9233 N.am      10 UNK        -0.7319 
     21 O         -71.1574   29.5517  -70.7082 O.2       10 UNK        -0.5018 
     22 N         -73.1285   28.6834  -72.5377 N.am      10 UNK        -0.4509 
     23 C         -72.3616   27.8853  -73.2907 C.2       10 UNK         0.4899 
     24 O         -71.7429   26.9126  -72.8530 O.2       10 UNK        -0.4839 
     25 CA        -72.3527   28.2158  -74.7941 C.3       9 UNK         0.0222 
     26 CB        -71.7210   29.5923  -75.0945 C.3       9 UNK        -0.1966 
     27 N         -71.7693   27.1376  -75.6024 N.am      9 UNK        -0.4218 
     28 C         -70.4769   26.8123  -75.7540 C.2       9 UNK         0.5020 
     29 O         -69.5386   27.4722  -75.3034 O.2       9 UNK        -0.5274 
     30 CA        -70.1488   25.5187  -76.5268 C.3       8 UNK         0.0270 
     31 CB        -69.5798   24.4570  -75.5692 C.3       8 UNK        -0.1976 
     32 N         -71.2646   24.9222  -77.2692 N.am      8 UNK        -0.4313 
     33 C         -71.8145   25.4112  -78.3885 C.2       8 UNK         0.5041 
     34 O         -71.5049   26.4955  -78.8841 O.2       8 UNK        -0.5577 
     35 CA        -72.8634   24.5376  -79.0967 C.3       7 UNK         0.0284 
     36 CB        -73.0088   23.1131  -78.5191 C.3       7 UNK        -0.1958 
     37 N         -74.1615   25.2025  -79.0458 N.am      7 UNK        -0.4454 
     38 C         -74.9721   25.4095  -80.0923 C.2       7 UNK         0.5089 
     39 O         -74.6797   25.1016  -81.2490 O.2       7 UNK        -0.5125 
     40 CA        -76.3554   26.0382  -79.8216 C.3       6 UNK         0.0408 
     41 CB        -77.4810   25.1107  -80.3112 C.3       6 UNK        -0.1791 
     42 N         -76.5784   26.3336  -78.4048 N.am      6 UNK        -0.4762 
     43 C         -76.2310   27.4767  -77.7959 C.2       6 UNK         0.5007 
     44 O         -75.7473   28.4408  -78.3889 O.2       6 UNK        -0.5032 
     45 CA        -76.3997   27.5341  -76.2617 C.3       5 UNK         0.0783 
     46 C46       -77.6702   28.3105  -75.8320 C.3       11 UNK        -0.0857 
     47 S47       -77.4263   30.1156  -75.7653 S.3       11 UNK        -0.2512 
     48 C48       -76.4259   30.3225  -74.2539 C.3       11 UNK         0.0225 
     49 N         -76.3599   26.2096  -75.6352 N.am      5 UNK        -0.4615 
     50 C         -75.2818   25.4144  -75.5868 C.2       4 UNK         0.5053 
     51 O         -74.1924   25.7203  -76.0691 O.2       4 UNK        -0.5105 
     52 CA        -75.4451   24.0341  -74.9293 C.3       4 UNK         0.0263 
     53 CB        -74.9888   24.0937  -73.4633 C.3       4 UNK        -0.1981 
     54 N         -76.8125   23.5102  -74.9966 N.am      4 UNK        -0.4224 
     55 C         -77.4759   23.2332  -76.1299 C.2       3 UNK         0.4895 
     56 O         -76.9845   23.3378  -77.2536 O.2       3 UNK        -0.5091 
     57 CA        -78.9545   22.8297  -75.9874 C.3       3 UNK         0.0250 
     58 CB        -79.0877   21.3016  -75.8900 C.3       3 UNK        -0.1996 
     59 N         -79.6335   23.4565  -74.8446 N.am      3 UNK        -0.4254 
     60 C         -79.7973   24.7775  -74.6861 C.2       2 UNK         0.5004 
     61 O         -79.3662   25.6234  -75.4738 O.2       2 UNK        -0.5226 
     62 CA        -80.5021   25.2361  -73.4072 C.3       2 UNK         0.0269 
     63 CB        -79.4933   25.3397  -72.2494 C.3       2 UNK        -0.1926 
     64 N         -81.1051   26.5442  -73.6498 N.am      2 UNK        -0.4687 
     65 C         -82.1492   27.0459  -72.9815 C.2       1 UNK         0.5165 
     66 O         -82.7165   26.4467  -72.0625 O.2       1 UNK        -0.5079 
     67 H67       -86.9288   27.5621  -72.6454 H         1 UNK         0.0900 
     68 H68       -87.0820   28.9854  -73.6795 H         1 UNK         0.0900 
     69 H69       -86.3493   29.1302  -72.0808 H         1 UNK         0.0900 
     70 H70       -84.1090   29.2477  -72.1431 H         1 UNK         0.2959 
     71 H71       -82.5978   28.4822  -74.4943 H         1 UNK         0.1079 
     72 H72       -80.6630   29.3856  -73.2679 H         1 UNK         0.0837 
     73 H73       -81.9666   30.5300  -73.3296 H         1 UNK         0.0837 
     74 H74       -80.2381   31.7216  -71.3121 H         1 UNK         0.0685 
     75 H75       -79.9994   30.9571  -69.7601 H         1 UNK         0.0685 
     76 H76       -78.5939   31.3750  -73.0016 H         1 UNK         0.1434 
     77 H77       -75.8336   28.1071  -72.7621 H         1 UNK         0.1329 
     78 H78       -78.8836   28.5585  -69.7820 H         1 UNK         0.1335 
     79 H79       -77.5572   26.5787  -69.8008 H         1 UNK         0.0680 
     80 H80       -76.5834   26.1689  -71.1800 H         1 UNK         0.0680 
     81 H81       -74.3658   26.6666  -71.5843 H         1 UNK         0.1032 
     82 H82       -73.1932   26.4889  -70.3362 H         1 UNK         0.1032 
     83 H83       -74.1020   29.3235  -70.8855 H         1 UNK         0.0461 
     84 H84       -71.3875   28.9910  -68.3426 H         1 UNK         0.3453 
     85 H85       -72.9679   28.2633  -68.5146 H         1 UNK         0.3453 
     86 H86       -73.5495   29.4940  -72.9654 H         1 UNK         0.2984 
     87 H87       -73.3948   28.2640  -75.1061 H         1 UNK         0.0554 
     88 H88       -71.6476   29.7701  -76.1675 H         1 UNK         0.0847 
     89 H89       -70.7213   29.6845  -74.6691 H         1 UNK         0.0847 
     90 H90       -72.3199   30.4014  -74.6761 H         1 UNK         0.0847 
     91 H91       -72.4578   26.4887  -75.9760 H         1 UNK         0.3141 
     92 H92       -69.3711   25.7734  -77.2499 H         1 UNK         0.0743 
     93 H93       -70.3152   24.1541  -74.8224 H         1 UNK         0.0784 
     94 H94       -69.2562   23.5657  -76.1073 H         1 UNK         0.0784 
     95 H95       -68.7110   24.8394  -75.0314 H         1 UNK         0.0784 
     96 H96       -71.6056   24.0360  -76.9264 H         1 UNK         0.3213 
     97 H97       -72.5249   24.4456  -80.1310 H         1 UNK         0.0855 
     98 H98       -73.3771   23.1202  -77.4928 H         1 UNK         0.0814 
     99 H99       -72.0595   22.5758  -78.5378 H         1 UNK         0.0814 
    100 H100      -73.7133   22.5274  -79.1102 H         1 UNK         0.0814 
    101 H101      -74.4457   25.5356  -78.1318 H         1 UNK         0.3105 
    102 H102      -76.4097   26.9635  -80.3986 H         1 UNK         0.0547 
    103 H103      -77.3958   24.9219  -81.3821 H         1 UNK         0.0837 
    104 H104      -77.4548   24.1434  -79.8083 H         1 UNK         0.0837 
    105 H105      -78.4629   25.5519  -80.1399 H         1 UNK         0.0837 
    106 H106      -76.9339   25.5701  -77.8415 H         1 UNK         0.3020 
    107 H107      -75.5263   28.0686  -75.8905 H         1 UNK         0.1245 
    108 H108      -78.0048   27.9884  -74.8450 H         1 UNK         0.0781 
    109 H109      -78.5085   28.0928  -76.4969 H         1 UNK         0.0781 
    110 H110      -76.2083   31.3840  -74.1259 H         1 UNK         0.0836 
    111 H111      -75.4596   29.8363  -74.3858 H         1 UNK         0.0836 
    112 H112      -77.2461   25.8630  -75.2872 H         1 UNK         0.3022 
    113 H113      -74.7958   23.3385  -75.4643 H         1 UNK         0.0747 
    114 H114      -74.9938   23.1045  -73.0052 H         1 UNK         0.0793 
    115 H115      -73.9708   24.4797  -73.3850 H         1 UNK         0.0793 
    116 H116      -75.6303   24.7433  -72.8680 H         1 UNK         0.0793 
    117 H117      -77.2968   23.3847  -74.1201 H         1 UNK         0.3047 
    118 H118      -79.4661   23.1600  -76.8942 H         1 UNK         0.0822 
    119 H119      -80.1333   20.9931  -75.8896 H         1 UNK         0.0807 
    120 H120      -78.6206   20.9105  -74.9852 H         1 UNK         0.0807 
    121 H121      -78.6093   20.8136  -76.7406 H         1 UNK         0.0807 
    122 H122      -80.0066   22.8306  -74.1446 H         1 UNK         0.2946 
    123 H123      -81.2842   24.5147  -73.1585 H         1 UNK         0.1144 
    124 H124      -79.9705   25.6849  -71.3319 H         1 UNK         0.0793 
    125 H125      -78.6918   26.0381  -72.4902 H         1 UNK         0.0793 
    126 H126      -79.0360   24.3738  -72.0323 H         1 UNK         0.0793 
    127 H127      -80.6957   27.0502  -74.4256 H         1 UNK         0.2896 
@<TRIPOS>BOND
     1    1    2 1    
     2    1   67 1    
     3    1   68 1    
     4    1   69 1    
     5    2    3 2    
     6    2    4 am   BACKBONE|DICT|INTERRES
     7    4    5 1    
     8    4   70 1    
     9    5    6 1    
    10    5   65 1    
    11    5   71 1    
    12    6    7 1    
    13    6   72 1    
    14    6   73 1    
    15    7    8 1    
    16    8    9 1    
    17    8   74 1    
    18    8   75 1    
    19    9   10 ar   
    20    9   14 ar   
    21   10   11 ar   
    22   10   76 1    
    23   11   12 ar   
    24   11   48 1    
    25   12   13 ar   
    26   12   77 1    
    27   13   14 ar   
    28   13   15 1    
    29   14   78 1    
    30   15   16 1    
    31   15   79 1    
    32   15   80 1    
    33   16   17 1    
    34   17   18 1    
    35   17   81 1    
    36   17   82 1    
    37   18   19 1    
    38   18   22 1    
    39   18   83 1    
    40   19   20 am   BACKBONE|DICT|INTERRES
    41   19   21 2    
    42   20   84 1    
    43   20   85 1    
    44   22   23 am   BACKBONE|DICT|INTERRES
    45   22   86 1    
    46   23   24 2    
    47   23   25 1    
    48   25   26 1    
    49   25   27 1    
    50   25   87 1    
    51   26   88 1    
    52   26   89 1    
    53   26   90 1    
    54   27   28 am   BACKBONE|DICT|INTERRES
    55   27   91 1    
    56   28   29 2    
    57   28   30 1    
    58   30   31 1    
    59   30   32 1    
    60   30   92 1    
    61   31   93 1    
    62   31   94 1    
    63   31   95 1    
    64   32   33 am   BACKBONE|DICT|INTERRES
    65   32   96 1    
    66   33   34 2    
    67   33   35 1    
    68   35   36 1    
    69   35   37 1    
    70   35   97 1    
    71   36   98 1    
    72   36   99 1    
    73   36  100 1    
    74   37   38 am   BACKBONE|DICT|INTERRES
    75   37  101 1    
    76   38   39 2    
    77   38   40 1    
    78   40   41 1    
    79   40   42 1    
    80   40  102 1    
    81   41  103 1    
    82   41  104 1    
    83   41  105 1    
    84   42   43 am   BACKBONE|DICT|INTERRES
    85   42  106 1    
    86   43   44 2    
    87   43   45 1    
    88   45   46 1    
    89   45   49 1    
    90   45  107 1    
    91   46   47 1    
    92   46  108 1    
    93   46  109 1    
    94   47   48 1    
    95   48  110 1    
    96   48  111 1    
    97   49   50 am   BACKBONE|DICT|INTERRES
    98   49  112 1    
    99   50   51 2    
   100   50   52 1    
   101   52   53 1    
   102   52   54 1    
   103   52  113 1    
   104   53  114 1    
   105   53  115 1    
   106   53  116 1    
   107   54   55 am   BACKBONE|DICT|INTERRES
   108   54  117 1    
   109   55   56 2    
   110   55   57 1    
   111   57   58 1    
   112   57   59 1    
   113   57  118 1    
   114   58  119 1    
   115   58  120 1    
   116   58  121 1    
   117   59   60 am   BACKBONE|DICT|INTERRES
   118   59  122 1    
   119   60   61 2    
   120   60   62 1    
   121   62   63 1    
   122   62   64 1    
   123   62  123 1    
   124   63  124 1    
   125   63  125 1    
   126   63  126 1    
   127   64   65 am   BACKBONE|DICT|INTERRES
   128   64  127 1    
   129   65   66 2    
@<TRIPOS>SUBSTRUCTURE
     1 UNK         1 GROUP             0       ****    0 ROOT    
