@<TRIPOS>MOLECULE
3R135
127   129    1
SMALL
USER_CHARGES


@<TRIPOS>ATOM
      1 CA        -83.1471   27.3783  -70.2257 C.3       0 UNK        -0.1998 
      2 C         -83.4772   27.4341  -71.7097 C.2       0 UNK         0.4909 
      3 O         -84.5494   26.9873  -72.1178 O.2       0 UNK        -0.5240 
      4 N         -82.5611   27.9792  -72.5205 N.am      1 UNK        -0.4739 
      5 CA        -82.6875   28.0903  -73.9802 C.3       1 UNK         0.0864 
      6 C6        -81.7628   29.1979  -74.5527 C.3       11 UNK        -0.0881 
      7 S7        -79.9823   28.9073  -74.2611 S.3       11 UNK        -0.2682 
      8 C8        -79.6688   29.9680  -72.8179 C.3       11 UNK         0.0289 
      9 C9        -78.4126   29.5246  -72.0860 C.ar      11 UNK        -0.0687 
     10 C10       -78.3990   28.3022  -71.4083 C.ar      11 UNK        -0.0823 
     11 C11       -77.2541   27.8777  -70.7304 C.ar      11 UNK        -0.0830 
     12 C12       -76.1194   28.6952  -70.7191 C.ar      11 UNK        -0.1021 
     13 C13       -76.1185   29.9195  -71.3959 C.ar      11 UNK        -0.0753 
     14 C14       -77.2700   30.3295  -72.0768 C.ar      11 UNK        -0.0933 
     15 C15       -74.8758   30.8022  -71.3894 C.3       11 UNK         0.0166 
     16 S16       -73.4997   30.0690  -72.3324 S.3       11 UNK        -0.2615 
     17 C17       -74.2209   29.9500  -74.0070 C.3       11 UNK        -0.0865 
     18 CA        -73.4230   30.6224  -75.1576 C.3       10 UNK         0.0862 
     19 C         -73.2604   32.1683  -75.0281 C.2       10 UNK         0.5551 
     20 N         -72.2110   32.7703  -75.5732 N.am      10 UNK        -0.7319 
     21 O         -74.1265   32.8427  -74.4758 O.2       10 UNK        -0.5018 
     22 N         -72.2503   29.8315  -75.5766 N.am      10 UNK        -0.4509 
     23 C         -71.0245   29.8091  -75.0343 C.2       10 UNK         0.4899 
     24 O         -70.6608   30.5189  -74.0960 O.2       10 UNK        -0.4839 
     25 CA        -70.0298   28.8266  -75.6850 C.3       9 UNK         0.0222 
     26 CB        -68.6312   28.8584  -75.0314 C.3       9 UNK        -0.1966 
     27 N         -70.5440   27.4528  -75.7432 N.am      9 UNK        -0.4218 
     28 C         -70.9132   26.6661  -74.7209 C.2       9 UNK         0.5020 
     29 O         -70.8560   26.9997  -73.5362 O.2       9 UNK        -0.5274 
     30 CA        -71.4132   25.2569  -75.1009 C.3       8 UNK         0.0270 
     31 CB        -71.8362   24.4186  -73.8792 C.3       8 UNK        -0.1976 
     32 N         -72.5234   25.3058  -76.0563 N.am      8 UNK        -0.4313 
     33 C         -72.3994   25.4985  -77.3765 C.2       8 UNK         0.5041 
     34 O         -71.3141   25.6854  -77.9294 O.2       8 UNK        -0.5577 
     35 CA        -73.6829   25.5123  -78.2252 C.3       7 UNK         0.0284 
     36 CB        -73.9404   24.1186  -78.8195 C.3       7 UNK        -0.1958 
     37 N         -74.8710   25.9542  -77.4921 N.am      7 UNK        -0.4454 
     38 C         -75.0589   27.1930  -77.0156 C.2       7 UNK         0.5089 
     39 O         -74.2642   28.1183  -77.1845 O.2       7 UNK        -0.5125 
     40 CA        -76.3322   27.4245  -76.1798 C.3       6 UNK         0.0408 
     41 CB        -77.5355   27.6766  -77.1004 C.3       6 UNK        -0.1791 
     42 N         -76.6313   26.3169  -75.2642 N.am      6 UNK        -0.4762 
     43 C         -75.8076   25.8668  -74.3030 C.2       6 UNK         0.5007 
     44 O         -74.7048   26.3547  -74.0669 O.2       6 UNK        -0.5032 
     45 CA        -76.2464   24.6065  -73.5361 C.3       5 UNK         0.0783 
     46 C46       -77.1846   24.9242  -72.3439 C.3       11 UNK        -0.0857 
     47 S47       -76.2264   25.2950  -70.8343 S.3       11 UNK        -0.2512 
     48 C48       -77.2520   26.5444  -69.9972 C.3       11 UNK         0.0225 
     49 N         -76.8197   23.6229  -74.4564 N.am      5 UNK        -0.4615 
     50 C         -76.0853   22.8242  -75.2442 C.2       4 UNK         0.5053 
     51 O         -74.8550   22.7978  -75.2335 O.2       4 UNK        -0.5105 
     52 CA        -76.8445   21.9114  -76.2227 C.3       4 UNK         0.0263 
     53 CB        -77.1785   20.5677  -75.5555 C.3       4 UNK        -0.1981 
     54 N         -78.0729   22.5171  -76.7409 N.am      4 UNK        -0.4224 
     55 C         -78.1071   23.5964  -77.5350 C.2       3 UNK         0.4895 
     56 O         -77.1034   24.1748  -77.9486 O.2       3 UNK        -0.5091 
     57 CA        -79.4959   24.1534  -77.8888 C.3       3 UNK         0.0250 
     58 CB        -80.0541   23.4527  -79.1376 C.3       3 UNK        -0.1996 
     59 N         -80.4732   24.0669  -76.7968 N.am      3 UNK        -0.4254 
     60 C         -80.3234   24.6218  -75.5858 C.2       2 UNK         0.5004 
     61 O         -79.3009   25.2030  -75.2141 O.2       2 UNK        -0.5226 
     62 CA        -81.4933   24.4674  -74.6044 C.3       2 UNK         0.0269 
     63 CB        -81.1157   23.5082  -73.4636 C.3       2 UNK        -0.1926 
     64 N         -81.8572   25.7655  -74.0403 N.am      2 UNK        -0.4687 
     65 C         -82.4921   26.7400  -74.7088 C.2       1 UNK         0.5165 
     66 O         -82.9239   26.6052  -75.8553 O.2       1 UNK        -0.5079 
     67 H67       -82.1733   27.8160  -70.0065 H         1 UNK         0.0900 
     68 H68       -83.1394   26.3443  -69.8820 H         1 UNK         0.0900 
     69 H69       -83.8989   27.9218  -69.6540 H         1 UNK         0.0900 
     70 H70       -81.6974   28.3294  -72.1346 H         1 UNK         0.2959 
     71 H71       -83.7153   28.3931  -74.1942 H         1 UNK         0.1079 
     72 H72       -81.9166   29.2960  -75.6291 H         1 UNK         0.0837 
     73 H73       -82.0433   30.1659  -74.1345 H         1 UNK         0.0837 
     74 H74       -79.5868   31.0046  -73.1487 H         1 UNK         0.0685 
     75 H75       -80.5121   29.9299  -72.1278 H         1 UNK         0.0685 
     76 H76       -79.2803   27.6762  -71.4196 H         1 UNK         0.1434 
     77 H77       -75.2294   28.3713  -70.1967 H         1 UNK         0.1329 
     78 H78       -77.2758   31.2752  -72.6016 H         1 UNK         0.1335 
     79 H79       -75.0964   31.7907  -71.7959 H         1 UNK         0.0680 
     80 H80       -74.5531   30.9592  -70.3593 H         1 UNK         0.0680 
     81 H81       -75.2330   30.3544  -73.9990 H         1 UNK         0.1032 
     82 H82       -74.3413   28.8902  -74.2260 H         1 UNK         0.1032 
     83 H83       -74.0765   30.5431  -76.0268 H         1 UNK         0.0461 
     84 H84       -72.1218   33.7715  -75.5015 H         1 UNK         0.3453 
     85 H85       -71.4897   32.2273  -76.0193 H         1 UNK         0.3453 
     86 H86       -72.4422   29.1973  -76.3418 H         1 UNK         0.2984 
     87 H87       -69.9118   29.1511  -76.7199 H         1 UNK         0.0554 
     88 H88       -67.9397   28.1862  -75.5393 H         1 UNK         0.0847 
     89 H89       -68.6674   28.5706  -73.9802 H         1 UNK         0.0847 
     90 H90       -68.2014   29.8598  -75.0782 H         1 UNK         0.0847 
     91 H91       -70.6509   27.0530  -76.6727 H         1 UNK         0.3141 
     92 H92       -70.5743   24.7397  -75.5716 H         1 UNK         0.0743 
     93 H93       -72.6421   24.8941  -73.3200 H         1 UNK         0.0784 
     94 H94       -72.1755   23.4259  -74.1760 H         1 UNK         0.0784 
     95 H95       -71.0005   24.2833  -73.1915 H         1 UNK         0.0784 
     96 H96       -73.4536   25.2448  -75.6618 H         1 UNK         0.3213 
     97 H97       -73.5211   26.2109  -79.0489 H         1 UNK         0.0855 
     98 H98       -74.1525   23.3830  -78.0424 H         1 UNK         0.0814 
     99 H99       -73.0734   23.7642  -79.3788 H         1 UNK         0.0814 
    100 H100      -74.7856   24.1312  -79.5079 H         1 UNK         0.0814 
    101 H101      -75.6201   25.2746  -77.3839 H         1 UNK         0.3105 
    102 H102      -76.1843   28.3169  -75.5704 H         1 UNK         0.0547 
    103 H103      -77.3868   28.5799  -77.6930 H         1 UNK         0.0837 
    104 H104      -77.6896   26.8540  -77.7978 H         1 UNK         0.0837 
    105 H105      -78.4555   27.8079  -76.5321 H         1 UNK         0.0837 
    106 H106      -77.5434   25.8753  -75.3626 H         1 UNK         0.3020 
    107 H107      -75.3347   24.1593  -73.1310 H         1 UNK         0.1245 
    108 H108      -77.8070   24.0589  -72.1113 H         1 UNK         0.0781 
    109 H109      -77.8777   25.7333  -72.5817 H         1 UNK         0.0781 
    110 H110      -76.8665   26.6946  -68.9878 H         1 UNK         0.0836 
    111 H111      -78.2657   26.1579  -69.8799 H         1 UNK         0.0836 
    112 H112      -77.8222   23.6558  -74.5828 H         1 UNK         0.3022 
    113 H113      -76.1836   21.7176  -77.0705 H         1 UNK         0.0747 
    114 H114      -77.6426   19.8784  -76.2612 H         1 UNK         0.0793 
    115 H115      -76.2753   20.0844  -75.1801 H         1 UNK         0.0793 
    116 H116      -77.8567   20.6921  -74.7103 H         1 UNK         0.0793 
    117 H117      -78.9479   22.1046  -76.4523 H         1 UNK         0.3047 
    118 H118      -79.3710   25.2118  -78.1238 H         1 UNK         0.0822 
    119 H119      -80.9871   23.9108  -79.4667 H         1 UNK         0.0807 
    120 H120      -80.2438   22.3937  -78.9582 H         1 UNK         0.0807 
    121 H121      -79.3518   23.5216  -79.9698 H         1 UNK         0.0807 
    122 H122      -81.3434   23.6017  -77.0127 H         1 UNK         0.2946 
    123 H123      -82.3603   24.0616  -75.1307 H         1 UNK         0.1144 
    124 H124      -80.2646   23.8764  -72.8894 H         1 UNK         0.0793 
    125 H125      -80.8473   22.5246  -73.8514 H         1 UNK         0.0793 
    126 H126      -81.9480   23.3669  -72.7738 H         1 UNK         0.0793 
    127 H127      -81.5065   25.9770  -73.1186 H         1 UNK         0.2896 
@<TRIPOS>BOND
     1    1    2 1    
     2    1   67 1    
     3    1   68 1    
     4    1   69 1    
     5    2    3 2    
     6    2    4 am   BACKBONE|DICT|INTERRES
     7    4    5 1    
     8    4   70 1    
     9    5    6 1    
    10    5   65 1    
    11    5   71 1    
    12    6    7 1    
    13    6   72 1    
    14    6   73 1    
    15    7    8 1    
    16    8    9 1    
    17    8   74 1    
    18    8   75 1    
    19    9   10 ar   
    20    9   14 ar   
    21   10   11 ar   
    22   10   76 1    
    23   11   12 ar   
    24   11   48 1    
    25   12   13 ar   
    26   12   77 1    
    27   13   14 ar   
    28   13   15 1    
    29   14   78 1    
    30   15   16 1    
    31   15   79 1    
    32   15   80 1    
    33   16   17 1    
    34   17   18 1    
    35   17   81 1    
    36   17   82 1    
    37   18   19 1    
    38   18   22 1    
    39   18   83 1    
    40   19   20 am   BACKBONE|DICT|INTERRES
    41   19   21 2    
    42   20   84 1    
    43   20   85 1    
    44   22   23 am   BACKBONE|DICT|INTERRES
    45   22   86 1    
    46   23   24 2    
    47   23   25 1    
    48   25   26 1    
    49   25   27 1    
    50   25   87 1    
    51   26   88 1    
    52   26   89 1    
    53   26   90 1    
    54   27   28 am   BACKBONE|DICT|INTERRES
    55   27   91 1    
    56   28   29 2    
    57   28   30 1    
    58   30   31 1    
    59   30   32 1    
    60   30   92 1    
    61   31   93 1    
    62   31   94 1    
    63   31   95 1    
    64   32   33 am   BACKBONE|DICT|INTERRES
    65   32   96 1    
    66   33   34 2    
    67   33   35 1    
    68   35   36 1    
    69   35   37 1    
    70   35   97 1    
    71   36   98 1    
    72   36   99 1    
    73   36  100 1    
    74   37   38 am   BACKBONE|DICT|INTERRES
    75   37  101 1    
    76   38   39 2    
    77   38   40 1    
    78   40   41 1    
    79   40   42 1    
    80   40  102 1    
    81   41  103 1    
    82   41  104 1    
    83   41  105 1    
    84   42   43 am   BACKBONE|DICT|INTERRES
    85   42  106 1    
    86   43   44 2    
    87   43   45 1    
    88   45   46 1    
    89   45   49 1    
    90   45  107 1    
    91   46   47 1    
    92   46  108 1    
    93   46  109 1    
    94   47   48 1    
    95   48  110 1    
    96   48  111 1    
    97   49   50 am   BACKBONE|DICT|INTERRES
    98   49  112 1    
    99   50   51 2    
   100   50   52 1    
   101   52   53 1    
   102   52   54 1    
   103   52  113 1    
   104   53  114 1    
   105   53  115 1    
   106   53  116 1    
   107   54   55 am   BACKBONE|DICT|INTERRES
   108   54  117 1    
   109   55   56 2    
   110   55   57 1    
   111   57   58 1    
   112   57   59 1    
   113   57  118 1    
   114   58  119 1    
   115   58  120 1    
   116   58  121 1    
   117   59   60 am   BACKBONE|DICT|INTERRES
   118   59  122 1    
   119   60   61 2    
   120   60   62 1    
   121   62   63 1    
   122   62   64 1    
   123   62  123 1    
   124   63  124 1    
   125   63  125 1    
   126   63  126 1    
   127   64   65 am   BACKBONE|DICT|INTERRES
   128   64  127 1    
   129   65   66 2    
@<TRIPOS>SUBSTRUCTURE
     1 UNK         1 GROUP             0       ****    0 ROOT    
