@<TRIPOS>MOLECULE
3R135
127   129    1
SMALL
USER_CHARGES


@<TRIPOS>ATOM
      1 CA        -82.4582   23.1600  -71.3291 C.3       0 UNK        -0.1998 
      2 C         -81.2853   23.8681  -70.6546 C.2       0 UNK         0.4909 
      3 O         -80.7659   23.3589  -69.6629 O.2       0 UNK        -0.5240 
      4 N         -80.8408   25.0405  -71.1294 N.am      1 UNK        -0.4739 
      5 CA        -81.3030   25.7557  -72.3280 C.3       1 UNK         0.0864 
      6 C6        -80.7975   27.2193  -72.3476 C.3       11 UNK        -0.0881 
      7 S7        -81.3634   28.1784  -70.9012 S.3       11 UNK        -0.2682 
      8 C8        -79.7733   28.6707  -70.1432 C.3       11 UNK         0.0289 
      9 C9        -78.8796   29.5841  -70.9890 C.ar      11 UNK        -0.0687 
     10 C10       -79.3306   30.2280  -72.1494 C.ar      11 UNK        -0.0823 
     11 C11       -78.4727   31.0339  -72.9005 C.ar      11 UNK        -0.0830 
     12 C12       -77.1650   31.2406  -72.4603 C.ar      11 UNK        -0.1021 
     13 C13       -76.6886   30.6022  -71.3090 C.ar      11 UNK        -0.0753 
     14 C14       -77.5557   29.7802  -70.5815 C.ar      11 UNK        -0.0933 
     15 C15       -75.2485   30.7817  -70.8313 C.3       11 UNK         0.0166 
     16 S16       -74.0568   30.9613  -72.1998 S.3       11 UNK        -0.2615 
     17 C17       -72.5281   30.2619  -71.4873 C.3       11 UNK        -0.0865 
     18 CA        -72.2815   28.7729  -71.8773 C.3       10 UNK         0.0862 
     19 C         -72.9971   27.7790  -70.9213 C.2       10 UNK         0.5551 
     20 N         -73.8611   26.8877  -71.3890 N.am      10 UNK        -0.7319 
     21 O         -72.7386   27.7989  -69.7205 O.2       10 UNK        -0.5018 
     22 N         -72.4913   28.5051  -73.3100 N.am      10 UNK        -0.4509 
     23 C         -71.7078   28.9646  -74.2910 C.2       10 UNK         0.4899 
     24 O         -70.6847   29.6261  -74.1021 O.2       10 UNK        -0.4839 
     25 CA        -72.1514   28.6150  -75.7237 C.3       9 UNK         0.0222 
     26 CB        -71.1906   29.1505  -76.8063 C.3       9 UNK        -0.1966 
     27 N         -72.3821   27.1783  -75.9037 N.am      9 UNK        -0.4218 
     28 C         -71.5070   26.1802  -75.7006 C.2       9 UNK         0.5020 
     29 O         -70.3415   26.3349  -75.3333 O.2       9 UNK        -0.5274 
     30 CA        -72.0229   24.7548  -75.9523 C.3       8 UNK         0.0270 
     31 CB        -72.5829   24.1554  -74.6538 C.3       8 UNK        -0.1976 
     32 N         -73.0419   24.6953  -77.0046 N.am      8 UNK        -0.4313 
     33 C         -72.7765   24.8310  -78.3111 C.2       8 UNK         0.5041 
     34 O         -71.6493   25.0366  -78.7631 O.2       8 UNK        -0.5577 
     35 CA        -73.9576   24.7120  -79.2795 C.3       7 UNK         0.0284 
     36 CB        -74.4440   23.2550  -79.3769 C.3       7 UNK        -0.1958 
     37 N         -75.0723   25.5794  -78.8861 N.am      7 UNK        -0.4454 
     38 C         -75.5170   26.6037  -79.6255 C.2       7 UNK         0.5089 
     39 O         -74.9736   26.9875  -80.6624 O.2       7 UNK        -0.5125 
     40 CA        -76.8125   27.3004  -79.1804 C.3       6 UNK         0.0408 
     41 CB        -78.0314   26.5991  -79.8015 C.3       6 UNK        -0.1791 
     42 N         -77.0055   27.3982  -77.7334 N.am      6 UNK        -0.4762 
     43 C         -76.3682   28.2758  -76.9441 C.2       6 UNK         0.5007 
     44 O         -75.3946   28.9380  -77.3020 O.2       6 UNK        -0.5032 
     45 CA        -76.9405   28.4551  -75.5247 C.3       5 UNK         0.0783 
     46 C46       -78.2902   29.2240  -75.5525 C.3       11 UNK        -0.0857 
     47 S47       -78.0477   31.0323  -75.6581 S.3       11 UNK        -0.2512 
     48 C48       -78.9539   31.6610  -74.2020 C.3       11 UNK         0.0225 
     49 N         -77.0827   27.1511  -74.8840 N.am      5 UNK        -0.4615 
     50 C         -76.1128   26.5305  -74.2017 C.2       4 UNK         0.5053 
     51 O         -75.0029   27.0178  -73.9741 O.2       4 UNK        -0.5105 
     52 CA        -76.4240   25.0991  -73.7258 C.3       4 UNK         0.0263 
     53 CB        -77.1137   25.1223  -72.3537 C.3       4 UNK        -0.1981 
     54 N         -77.2382   24.3454  -74.6864 N.am      4 UNK        -0.4224 
     55 C         -76.8370   24.0569  -75.9350 C.2       3 UNK         0.4895 
     56 O         -75.7217   24.3429  -76.3703 O.2       3 UNK        -0.5091 
     57 CA        -77.8389   23.3872  -76.8905 C.3       3 UNK         0.0250 
     58 CB        -77.6118   21.8680  -76.9173 C.3       3 UNK        -0.1996 
     59 N         -79.2467   23.6601  -76.5945 N.am      3 UNK        -0.4254 
     60 C         -79.8224   24.8678  -76.5074 C.2       2 UNK         0.5004 
     61 O         -79.2196   25.9314  -76.6697 O.2       2 UNK        -0.5226 
     62 CA        -81.3101   24.9009  -76.1058 C.3       2 UNK         0.0269 
     63 CB        -82.0298   23.5392  -76.2427 C.3       2 UNK        -0.1926 
     64 N         -81.5046   25.4323  -74.7496 N.am      2 UNK        -0.4687 
     65 C         -80.8877   25.0308  -73.6267 C.2       1 UNK         0.5165 
     66 O         -80.0232   24.1500  -73.5945 O.2       1 UNK        -0.5079 
     67 H67       -83.2997   23.8343  -71.4818 H         1 UNK         0.0900 
     68 H68       -82.8109   22.3367  -70.7082 H         1 UNK         0.0900 
     69 H69       -82.1577   22.7424  -72.2895 H         1 UNK         0.0900 
     70 H70       -80.0670   25.4767  -70.6517 H         1 UNK         0.2959 
     71 H71       -82.3939   25.7835  -72.3059 H         1 UNK         0.1079 
     72 H72       -79.7090   27.2524  -72.4095 H         1 UNK         0.0837 
     73 H73       -81.1594   27.7430  -73.2344 H         1 UNK         0.0837 
     74 H74       -79.9895   29.1788  -69.2026 H         1 UNK         0.0685 
     75 H75       -79.2227   27.7649  -69.8846 H         1 UNK         0.0685 
     76 H76       -80.3470   30.0967  -72.4898 H         1 UNK         0.1434 
     77 H77       -76.5134   31.8792  -73.0401 H         1 UNK         0.1329 
     78 H78       -77.1968   29.2861  -69.6886 H         1 UNK         0.1335 
     79 H79       -75.1896   31.6608  -70.1887 H         1 UNK         0.0680 
     80 H80       -74.9589   29.9262  -70.2198 H         1 UNK         0.0680 
     81 H81       -71.6996   30.8663  -71.8589 H         1 UNK         0.1032 
     82 H82       -72.5158   30.4057  -70.4051 H         1 UNK         0.1032 
     83 H83       -71.2240   28.5737  -71.6928 H         1 UNK         0.0461 
     84 H84       -74.2834   26.2473  -70.7374 H         1 UNK         0.3453 
     85 H85       -74.1575   26.8873  -72.3586 H         1 UNK         0.3453 
     86 H86       -73.3258   27.9810  -73.5517 H         1 UNK         0.2984 
     87 H87       -73.1154   29.1034  -75.8692 H         1 UNK         0.0554 
     88 H88       -71.5580   28.9243  -77.8073 H         1 UNK         0.0847 
     89 H89       -70.1921   28.7228  -76.7107 H         1 UNK         0.0847 
     90 H90       -71.0888   30.2341  -76.7358 H         1 UNK         0.0847 
     91 H91       -73.3214   26.9205  -76.1710 H         1 UNK         0.3141 
     92 H92       -71.1754   24.1427  -76.2688 H         1 UNK         0.0743 
     93 H93       -73.3494   24.7952  -74.2207 H         1 UNK         0.0784 
     94 H94       -73.0145   23.1678  -74.8175 H         1 UNK         0.0784 
     95 H95       -71.7955   24.0487  -73.9066 H         1 UNK         0.0784 
     96 H96       -74.0030   24.5142  -76.7136 H         1 UNK         0.3213 
     97 H97       -73.5853   24.9921  -80.2673 H         1 UNK         0.0855 
     98 H98       -73.6349   22.5961  -79.6948 H         1 UNK         0.0814 
     99 H99       -75.2476   23.1554  -80.1067 H         1 UNK         0.0814 
    100 H100      -74.8119   22.8786  -78.4228 H         1 UNK         0.0814 
    101 H101      -75.5422   25.3502  -78.0162 H         1 UNK         0.3105 
    102 H102      -76.7829   28.3174  -79.5782 H         1 UNK         0.0547 
    103 H103      -77.9423   26.5480  -80.8876 H         1 UNK         0.0837 
    104 H104      -78.1421   25.5784  -79.4357 H         1 UNK         0.0837 
    105 H105      -78.9540   27.1351  -79.5784 H         1 UNK         0.0837 
    106 H106      -77.7950   26.8826  -77.3480 H         1 UNK         0.3020 
    107 H107      -76.2224   29.0428  -74.9460 H         1 UNK         0.1245 
    108 H108      -78.8614   28.9982  -74.6522 H         1 UNK         0.0781 
    109 H109      -78.9285   28.9013  -76.3776 H         1 UNK         0.0781 
    110 H110      -80.0207   31.4858  -74.3496 H         1 UNK         0.0836 
    111 H111      -78.8271   32.7430  -74.1459 H         1 UNK         0.0836 
    112 H112      -77.9314   26.6413  -75.0952 H         1 UNK         0.3022 
    113 H113      -75.4799   24.5672  -73.6113 H         1 UNK         0.0747 
    114 H114      -77.3015   24.1134  -71.9859 H         1 UNK         0.0793 
    115 H115      -76.4965   25.6296  -71.6119 H         1 UNK         0.0793 
    116 H116      -78.0671   25.6451  -72.3913 H         1 UNK         0.0793 
    117 H117      -78.1810   24.0981  -74.3981 H         1 UNK         0.3047 
    118 H118      -77.6365   23.7776  -77.8893 H         1 UNK         0.0822 
    119 H119      -78.2289   21.3872  -77.6767 H         1 UNK         0.0807 
    120 H120      -77.8428   21.4088  -75.9552 H         1 UNK         0.0807 
    121 H121      -76.5731   21.6294  -77.1499 H         1 UNK         0.0807 
    122 H122      -79.8241   22.8555  -76.3978 H         1 UNK         0.2946 
    123 H123      -81.7876   25.5999  -76.7948 H         1 UNK         0.1144 
    124 H124      -81.9196   23.1309  -77.2485 H         1 UNK         0.0793 
    125 H125      -83.0996   23.6471  -76.0626 H         1 UNK         0.0793 
    126 H126      -81.6557   22.7977  -75.5356 H         1 UNK         0.0793 
    127 H127      -82.1733   26.1874  -74.6820 H         1 UNK         0.2896 
@<TRIPOS>BOND
     1    1    2 1    
     2    1   67 1    
     3    1   68 1    
     4    1   69 1    
     5    2    3 2    
     6    2    4 am   BACKBONE|DICT|INTERRES
     7    4    5 1    
     8    4   70 1    
     9    5    6 1    
    10    5   65 1    
    11    5   71 1    
    12    6    7 1    
    13    6   72 1    
    14    6   73 1    
    15    7    8 1    
    16    8    9 1    
    17    8   74 1    
    18    8   75 1    
    19    9   10 ar   
    20    9   14 ar   
    21   10   11 ar   
    22   10   76 1    
    23   11   12 ar   
    24   11   48 1    
    25   12   13 ar   
    26   12   77 1    
    27   13   14 ar   
    28   13   15 1    
    29   14   78 1    
    30   15   16 1    
    31   15   79 1    
    32   15   80 1    
    33   16   17 1    
    34   17   18 1    
    35   17   81 1    
    36   17   82 1    
    37   18   19 1    
    38   18   22 1    
    39   18   83 1    
    40   19   20 am   BACKBONE|DICT|INTERRES
    41   19   21 2    
    42   20   84 1    
    43   20   85 1    
    44   22   23 am   BACKBONE|DICT|INTERRES
    45   22   86 1    
    46   23   24 2    
    47   23   25 1    
    48   25   26 1    
    49   25   27 1    
    50   25   87 1    
    51   26   88 1    
    52   26   89 1    
    53   26   90 1    
    54   27   28 am   BACKBONE|DICT|INTERRES
    55   27   91 1    
    56   28   29 2    
    57   28   30 1    
    58   30   31 1    
    59   30   32 1    
    60   30   92 1    
    61   31   93 1    
    62   31   94 1    
    63   31   95 1    
    64   32   33 am   BACKBONE|DICT|INTERRES
    65   32   96 1    
    66   33   34 2    
    67   33   35 1    
    68   35   36 1    
    69   35   37 1    
    70   35   97 1    
    71   36   98 1    
    72   36   99 1    
    73   36  100 1    
    74   37   38 am   BACKBONE|DICT|INTERRES
    75   37  101 1    
    76   38   39 2    
    77   38   40 1    
    78   40   41 1    
    79   40   42 1    
    80   40  102 1    
    81   41  103 1    
    82   41  104 1    
    83   41  105 1    
    84   42   43 am   BACKBONE|DICT|INTERRES
    85   42  106 1    
    86   43   44 2    
    87   43   45 1    
    88   45   46 1    
    89   45   49 1    
    90   45  107 1    
    91   46   47 1    
    92   46  108 1    
    93   46  109 1    
    94   47   48 1    
    95   48  110 1    
    96   48  111 1    
    97   49   50 am   BACKBONE|DICT|INTERRES
    98   49  112 1    
    99   50   51 2    
   100   50   52 1    
   101   52   53 1    
   102   52   54 1    
   103   52  113 1    
   104   53  114 1    
   105   53  115 1    
   106   53  116 1    
   107   54   55 am   BACKBONE|DICT|INTERRES
   108   54  117 1    
   109   55   56 2    
   110   55   57 1    
   111   57   58 1    
   112   57   59 1    
   113   57  118 1    
   114   58  119 1    
   115   58  120 1    
   116   58  121 1    
   117   59   60 am   BACKBONE|DICT|INTERRES
   118   59  122 1    
   119   60   61 2    
   120   60   62 1    
   121   62   63 1    
   122   62   64 1    
   123   62  123 1    
   124   63  124 1    
   125   63  125 1    
   126   63  126 1    
   127   64   65 am   BACKBONE|DICT|INTERRES
   128   64  127 1    
   129   65   66 2    
@<TRIPOS>SUBSTRUCTURE
     1 UNK         1 GROUP             0       ****    0 ROOT    
