@<TRIPOS>MOLECULE
3R135
127   129    1
SMALL
USER_CHARGES


@<TRIPOS>ATOM
      1 CA        -76.9166   25.8640  -70.0734 C.3       0 UNK        -0.1998 
      2 C         -78.2172   25.7289  -70.8502 C.2       0 UNK         0.4909 
      3 O         -78.1818   25.5298  -72.0626 O.2       0 UNK        -0.5240 
      4 N         -79.3620   25.8070  -70.1549 N.am      1 UNK        -0.4739 
      5 CA        -80.7305   25.8039  -70.7071 C.3       1 UNK         0.0864 
      6 C6        -81.0761   27.1162  -71.4634 C.3       11 UNK        -0.0881 
      7 S7        -80.9990   28.5612  -70.3536 S.3       11 UNK        -0.2682 
      8 C8        -81.3273   29.9261  -71.5163 C.3       11 UNK         0.0289 
      9 C9        -80.1935   30.1682  -72.5080 C.ar      11 UNK        -0.0687 
     10 C10       -80.4794   30.3546  -73.8637 C.ar      11 UNK        -0.0823 
     11 C11       -79.4563   30.6230  -74.7791 C.ar      11 UNK        -0.0830 
     12 C12       -78.1324   30.6924  -74.3327 C.ar      11 UNK        -0.1021 
     13 C13       -77.8332   30.4991  -72.9804 C.ar      11 UNK        -0.0753 
     14 C14       -78.8666   30.2484  -72.0740 C.ar      11 UNK        -0.0933 
     15 C15       -76.3982   30.5585  -72.4850 C.3       11 UNK         0.0166 
     16 S16       -75.6393   28.9091  -72.5317 S.3       11 UNK        -0.2615 
     17 C17       -74.2002   29.1505  -71.4318 C.3       11 UNK        -0.0865 
     18 CA        -72.9923   29.8614  -72.1011 C.3       10 UNK         0.0862 
     19 C         -71.7830   29.8991  -71.1210 C.2       10 UNK         0.5551 
     20 N         -70.7125   29.1505  -71.3592 N.am      10 UNK        -0.7319 
     21 O         -71.8239   30.6183  -70.1260 O.2       10 UNK        -0.5018 
     22 N         -72.7093   29.2978  -73.4274 N.am      10 UNK        -0.4509 
     23 C         -71.8658   29.7866  -74.3443 C.2       10 UNK         0.4899 
     24 O         -71.1997   30.8106  -74.1884 O.2       10 UNK        -0.4839 
     25 CA        -71.7819   29.0141  -75.6759 C.3       9 UNK         0.0222 
     26 CB        -70.3670   29.0292  -76.2907 C.3       9 UNK        -0.1966 
     27 N         -72.3204   27.6485  -75.5954 N.am      9 UNK        -0.4218 
     28 C         -71.8351   26.6123  -74.8921 C.2       9 UNK         0.5020 
     29 O         -70.8039   26.6557  -74.2205 O.2       9 UNK        -0.5274 
     30 CA        -72.6652   25.3194  -74.9033 C.3       8 UNK         0.0270 
     31 CB        -73.6765   25.3360  -73.7445 C.3       8 UNK        -0.1976 
     32 N         -73.3734   25.1444  -76.1751 N.am      8 UNK        -0.4313 
     33 C         -72.9385   24.3801  -77.1876 C.2       8 UNK         0.5041 
     34 O         -71.9696   23.6234  -77.1108 O.2       8 UNK        -0.5577 
     35 CA        -73.6943   24.4926  -78.5275 C.3       7 UNK         0.0284 
     36 CB        -74.8717   23.5068  -78.5655 C.3       7 UNK        -0.1958 
     37 N         -74.1824   25.8472  -78.8050 N.am      7 UNK        -0.4454 
     38 C         -73.3986   26.9279  -78.9414 C.2       7 UNK         0.5089 
     39 O         -72.1704   26.8770  -78.9992 O.2       7 UNK        -0.5125 
     40 CA        -74.0854   28.3072  -78.9754 C.3       6 UNK         0.0408 
     41 CB        -74.1222   28.8479  -80.4133 C.3       6 UNK        -0.1791 
     42 N         -75.4436   28.3369  -78.4210 N.am      6 UNK        -0.4762 
     43 C         -75.8279   27.9638  -77.1897 C.2       6 UNK         0.5007 
     44 O         -75.0487   27.5414  -76.3332 O.2       6 UNK        -0.5032 
     45 CA        -77.3416   28.0113  -76.8885 C.3       5 UNK         0.0783 
     46 C46       -78.0744   29.1303  -77.6797 C.3       11 UNK        -0.0857 
     47 S47       -79.8240   29.3150  -77.1961 S.3       11 UNK        -0.2512 
     48 C48       -79.7975   30.8651  -76.2420 C.3       11 UNK         0.0225 
     49 N         -77.9725   26.6945  -77.0607 N.am      5 UNK        -0.4615 
     50 C         -77.9390   25.8868  -78.1301 C.2       4 UNK         0.5053 
     51 O         -77.2410   26.0864  -79.1258 O.2       4 UNK        -0.5105 
     52 CA        -78.8219   24.6246  -78.0566 C.3       4 UNK         0.0263 
     53 CB        -78.8175   23.8175  -79.3687 C.3       4 UNK        -0.1981 
     54 N         -78.4193   23.7461  -76.9565 N.am      4 UNK        -0.4224 
     55 C         -78.7197   23.9446  -75.6678 C.2       3 UNK         0.4895 
     56 O         -79.4070   24.8867  -75.2660 O.2       3 UNK        -0.5091 
     57 CA        -78.0903   22.9616  -74.6733 C.3       3 UNK         0.0250 
     58 CB        -76.6542   23.3959  -74.3409 C.3       3 UNK        -0.1996 
     59 N         -78.8693   22.9131  -73.4370 N.am      3 UNK        -0.4254 
     60 C         -79.8439   22.0258  -73.1938 C.2       2 UNK         0.5004 
     61 O         -80.1615   21.1324  -73.9808 O.2       2 UNK        -0.5226 
     62 CA        -80.5824   22.1155  -71.8448 C.3       2 UNK         0.0269 
     63 CB        -80.1023   21.0037  -70.8967 C.3       2 UNK        -0.1926 
     64 N         -80.4285   23.4072  -71.1727 N.am      2 UNK        -0.4687 
     65 C         -81.0696   24.5316  -71.5219 C.2       1 UNK         0.5165 
     66 O         -81.9082   24.5745  -72.4240 O.2       1 UNK        -0.5079 
     67 H67       -76.2963   24.9810  -70.2236 H         1 UNK         0.0900 
     68 H68       -76.3622   26.7331  -70.4260 H         1 UNK         0.0900 
     69 H69       -77.0892   25.9821  -69.0040 H         1 UNK         0.0900 
     70 H70       -79.3125   25.9532  -69.1560 H         1 UNK         0.2959 
     71 H71       -81.3954   25.7493  -69.8434 H         1 UNK         0.1079 
     72 H72       -82.0849   27.0791  -71.8788 H         1 UNK         0.0837 
     73 H73       -80.3985   27.2644  -72.3066 H         1 UNK         0.0837 
     74 H74       -81.4839   30.8405  -70.9428 H         1 UNK         0.0685 
     75 H75       -82.2648   29.7246  -72.0369 H         1 UNK         0.0685 
     76 H76       -81.5034   30.3045  -74.2085 H         1 UNK         0.1434 
     77 H77       -77.3354   30.8962  -75.0346 H         1 UNK         0.1329 
     78 H78       -78.6354   30.1077  -71.0270 H         1 UNK         0.1335 
     79 H79       -76.3753   30.9494  -71.4666 H         1 UNK         0.0680 
     80 H80       -75.8099   31.2454  -73.0953 H         1 UNK         0.0680 
     81 H81       -73.9014   28.1612  -71.0791 H         1 UNK         0.1032 
     82 H82       -74.5197   29.6958  -70.5415 H         1 UNK         0.1032 
     83 H83       -73.2768   30.9017  -72.2688 H         1 UNK         0.0461 
     84 H84       -69.9333   29.1811  -70.7209 H         1 UNK         0.3453 
     85 H85       -70.6758   28.5604  -72.1767 H         1 UNK         0.3453 
     86 H86       -73.2374   28.4717  -73.6641 H         1 UNK         0.2984 
     87 H87       -72.4390   29.5501  -76.3606 H         1 UNK         0.0554 
     88 H88       -70.3406   28.4838  -77.2343 H         1 UNK         0.0847 
     89 H89       -69.6282   28.5841  -75.6239 H         1 UNK         0.0847 
     90 H90       -70.0413   30.0490  -76.4983 H         1 UNK         0.0847 
     91 H91       -73.2351   27.5308  -76.0245 H         1 UNK         0.3141 
     92 H92       -71.9768   24.4883  -74.7360 H         1 UNK         0.0743 
     93 H93       -73.1894   25.5798  -72.7990 H         1 UNK         0.0784 
     94 H94       -74.1368   24.3575  -73.6181 H         1 UNK         0.0784 
     95 H95       -74.4706   26.0676  -73.9012 H         1 UNK         0.0784 
     96 H96       -74.1654   25.7580  -76.3371 H         1 UNK         0.3213 
     97 H97       -72.9957   24.2240  -79.3228 H         1 UNK         0.0855 
     98 H98       -75.6155   23.7410  -77.8044 H         1 UNK         0.0814 
     99 H99       -74.5319   22.4854  -78.3885 H         1 UNK         0.0814 
    100 H100      -75.3656   23.5199  -79.5371 H         1 UNK         0.0814 
    101 H101      -75.1885   25.9827  -78.8321 H         1 UNK         0.3105 
    102 H102      -73.4764   28.9848  -78.3762 H         1 UNK         0.0547 
    103 H103      -73.1219   28.8705  -80.8485 H         1 UNK         0.0837 
    104 H104      -74.7447   28.2289  -81.0607 H         1 UNK         0.0837 
    105 H105      -74.5088   29.8665  -80.4466 H         1 UNK         0.0837 
    106 H106      -76.1720   28.5940  -79.0718 H         1 UNK         0.3020 
    107 H107      -77.4222   28.2479  -75.8257 H         1 UNK         0.1245 
    108 H108      -77.5632   30.0866  -77.5556 H         1 UNK         0.0781 
    109 H109      -78.0650   28.9180  -78.7502 H         1 UNK         0.0781 
    110 H110      -80.7824   31.3292  -76.3136 H         1 UNK         0.0836 
    111 H111      -79.1042   31.5795  -76.6880 H         1 UNK         0.0836 
    112 H112      -78.5423   26.3829  -76.2794 H         1 UNK         0.3022 
    113 H113      -79.8466   24.9611  -77.8832 H         1 UNK         0.0747 
    114 H114      -79.5031   22.9716  -79.3159 H         1 UNK         0.0793 
    115 H115      -77.8262   23.4312  -79.6065 H         1 UNK         0.0793 
    116 H116      -79.1354   24.4369  -80.2086 H         1 UNK         0.0793 
    117 H117      -77.8345   22.9607  -77.2029 H         1 UNK         0.3047 
    118 H118      -78.0547   21.9696  -75.1292 H         1 UNK         0.0822 
    119 H119      -76.1978   22.7295  -73.6088 H         1 UNK         0.0807 
    120 H120      -76.6253   24.4084  -73.9361 H         1 UNK         0.0807 
    121 H121      -76.0208   23.3833  -75.2287 H         1 UNK         0.0807 
    122 H122      -78.7333   23.6910  -72.7985 H         1 UNK         0.2946 
    123 H123      -81.6436   21.9553  -72.0497 H         1 UNK         0.1144 
    124 H124      -80.2325   20.0200  -71.3503 H         1 UNK         0.0793 
    125 H125      -80.6674   21.0048  -69.9644 H         1 UNK         0.0793 
    126 H126      -79.0451   21.1112  -70.6507 H         1 UNK         0.0793 
    127 H127      -79.7531   23.4582  -70.4234 H         1 UNK         0.2896 
@<TRIPOS>BOND
     1    1    2 1    
     2    1   67 1    
     3    1   68 1    
     4    1   69 1    
     5    2    3 2    
     6    2    4 am   BACKBONE|DICT|INTERRES
     7    4    5 1    
     8    4   70 1    
     9    5    6 1    
    10    5   65 1    
    11    5   71 1    
    12    6    7 1    
    13    6   72 1    
    14    6   73 1    
    15    7    8 1    
    16    8    9 1    
    17    8   74 1    
    18    8   75 1    
    19    9   10 ar   
    20    9   14 ar   
    21   10   11 ar   
    22   10   76 1    
    23   11   12 ar   
    24   11   48 1    
    25   12   13 ar   
    26   12   77 1    
    27   13   14 ar   
    28   13   15 1    
    29   14   78 1    
    30   15   16 1    
    31   15   79 1    
    32   15   80 1    
    33   16   17 1    
    34   17   18 1    
    35   17   81 1    
    36   17   82 1    
    37   18   19 1    
    38   18   22 1    
    39   18   83 1    
    40   19   20 am   BACKBONE|DICT|INTERRES
    41   19   21 2    
    42   20   84 1    
    43   20   85 1    
    44   22   23 am   BACKBONE|DICT|INTERRES
    45   22   86 1    
    46   23   24 2    
    47   23   25 1    
    48   25   26 1    
    49   25   27 1    
    50   25   87 1    
    51   26   88 1    
    52   26   89 1    
    53   26   90 1    
    54   27   28 am   BACKBONE|DICT|INTERRES
    55   27   91 1    
    56   28   29 2    
    57   28   30 1    
    58   30   31 1    
    59   30   32 1    
    60   30   92 1    
    61   31   93 1    
    62   31   94 1    
    63   31   95 1    
    64   32   33 am   BACKBONE|DICT|INTERRES
    65   32   96 1    
    66   33   34 2    
    67   33   35 1    
    68   35   36 1    
    69   35   37 1    
    70   35   97 1    
    71   36   98 1    
    72   36   99 1    
    73   36  100 1    
    74   37   38 am   BACKBONE|DICT|INTERRES
    75   37  101 1    
    76   38   39 2    
    77   38   40 1    
    78   40   41 1    
    79   40   42 1    
    80   40  102 1    
    81   41  103 1    
    82   41  104 1    
    83   41  105 1    
    84   42   43 am   BACKBONE|DICT|INTERRES
    85   42  106 1    
    86   43   44 2    
    87   43   45 1    
    88   45   46 1    
    89   45   49 1    
    90   45  107 1    
    91   46   47 1    
    92   46  108 1    
    93   46  109 1    
    94   47   48 1    
    95   48  110 1    
    96   48  111 1    
    97   49   50 am   BACKBONE|DICT|INTERRES
    98   49  112 1    
    99   50   51 2    
   100   50   52 1    
   101   52   53 1    
   102   52   54 1    
   103   52  113 1    
   104   53  114 1    
   105   53  115 1    
   106   53  116 1    
   107   54   55 am   BACKBONE|DICT|INTERRES
   108   54  117 1    
   109   55   56 2    
   110   55   57 1    
   111   57   58 1    
   112   57   59 1    
   113   57  118 1    
   114   58  119 1    
   115   58  120 1    
   116   58  121 1    
   117   59   60 am   BACKBONE|DICT|INTERRES
   118   59  122 1    
   119   60   61 2    
   120   60   62 1    
   121   62   63 1    
   122   62   64 1    
   123   62  123 1    
   124   63  124 1    
   125   63  125 1    
   126   63  126 1    
   127   64   65 am   BACKBONE|DICT|INTERRES
   128   64  127 1    
   129   65   66 2    
@<TRIPOS>SUBSTRUCTURE
     1 UNK         1 GROUP             0       ****    0 ROOT    
