@<TRIPOS>MOLECULE
3R135
127   129    1
SMALL
USER_CHARGES


@<TRIPOS>ATOM
      1 CA        -85.4571   26.1697  -69.9252 C.3       0 UNK        -0.1998 
      2 C         -84.8839   26.9285  -71.1126 C.2       0 UNK         0.4909 
      3 O         -85.6140   27.2272  -72.0580 O.2       0 UNK        -0.5240 
      4 N         -83.5841   27.2472  -71.0656 N.am      1 UNK        -0.4739 
      5 CA        -82.8343   27.9287  -72.1284 C.3       1 UNK         0.0864 
      6 C6        -81.4551   28.4411  -71.6324 C.3       11 UNK        -0.0881 
      7 S7        -80.4906   27.2282  -70.6514 S.3       11 UNK        -0.2682 
      8 C8        -79.1549   26.7426  -71.7900 C.3       11 UNK         0.0289 
      9 C9        -78.1633   27.8715  -72.0240 C.ar      11 UNK        -0.0687 
     10 C10       -78.2162   28.6222  -73.2018 C.ar      11 UNK        -0.0823 
     11 C11       -77.3083   29.6624  -73.4216 C.ar      11 UNK        -0.0830 
     12 C12       -76.3476   29.9520  -72.4496 C.ar      11 UNK        -0.1021 
     13 C13       -76.2733   29.1979  -71.2751 C.ar      11 UNK        -0.0753 
     14 C14       -77.1846   28.1579  -71.0674 C.ar      11 UNK        -0.0933 
     15 C15       -75.2035   29.5016  -70.2379 C.3       11 UNK         0.0166 
     16 S16       -73.6254   28.7253  -70.7041 S.3       11 UNK        -0.2615 
     17 C17       -72.4821   30.1510  -70.7097 C.3       11 UNK        -0.0865 
     18 CA        -72.6658   31.1319  -71.9085 C.3       10 UNK         0.0862 
     19 C         -71.6693   32.3300  -71.8480 C.2       10 UNK         0.5551 
     20 N         -71.1942   32.8530  -72.9719 N.am      10 UNK        -0.7319 
     21 O         -71.3454   32.8170  -70.7673 O.2       10 UNK        -0.5018 
     22 N         -72.7527   30.4633  -73.2212 N.am      10 UNK        -0.4509 
     23 C         -71.8083   29.7044  -73.7879 C.2       10 UNK         0.4899 
     24 O         -70.7003   29.4810  -73.2944 O.2       10 UNK        -0.4839 
     25 CA        -72.1550   29.1401  -75.1739 C.3       9 UNK         0.0222 
     26 CB        -71.6928   30.1007  -76.2814 C.3       9 UNK        -0.1966 
     27 N         -71.5428   27.8288  -75.3854 N.am      9 UNK        -0.4218 
     28 C         -71.9833   26.6959  -74.8267 C.2       9 UNK         0.5020 
     29 O         -72.9823   26.6218  -74.1098 O.2       9 UNK        -0.5274 
     30 CA        -71.1903   25.4253  -75.1422 C.3       8 UNK         0.0270 
     31 CB        -70.7934   24.6636  -73.8638 C.3       8 UNK        -0.1976 
     32 N         -72.0177   24.5791  -75.9947 N.am      8 UNK        -0.4313 
     33 C         -71.5532   23.7423  -76.9298 C.2       8 UNK         0.5041 
     34 O         -70.3557   23.5554  -77.1510 O.2       8 UNK        -0.5577 
     35 CA        -72.5971   23.0024  -77.7785 C.3       7 UNK         0.0284 
     36 CB        -73.2142   21.8290  -76.9983 C.3       7 UNK        -0.1958 
     37 N         -73.6515   23.9127  -78.2272 N.am      7 UNK        -0.4454 
     38 C         -73.5848   24.6607  -79.3375 C.2       7 UNK         0.5089 
     39 O         -72.6471   24.6186  -80.1347 O.2       7 UNK        -0.5125 
     40 CA        -74.7620   25.6115  -79.6234 C.3       6 UNK         0.0408 
     41 CB        -75.7450   24.9622  -80.6102 C.3       6 UNK        -0.1791 
     42 N         -75.4848   26.0112  -78.4140 N.am      6 UNK        -0.4762 
     43 C         -75.0286   26.9068  -77.5226 C.2       6 UNK         0.5007 
     44 O         -73.9744   27.5244  -77.6671 O.2       6 UNK        -0.5032 
     45 CA        -75.8841   27.1403  -76.2539 C.3       5 UNK         0.0783 
     46 C46       -76.8558   28.3325  -76.4695 C.3       11 UNK        -0.0857 
     47 S47       -76.1404   29.9206  -75.9262 S.3       11 UNK        -0.2512 
     48 C48       -77.3663   30.4836  -74.7012 C.3       11 UNK         0.0225 
     49 N         -76.6075   25.9408  -75.8124 N.am      5 UNK        -0.4615 
     50 C         -76.0699   24.7373  -75.5649 C.2       4 UNK         0.5053 
     51 O         -74.8622   24.5066  -75.5997 O.2       4 UNK        -0.5105 
     52 CA        -77.0405   23.5666  -75.3190 C.3       4 UNK         0.0263 
     53 CB        -77.1732   23.2985  -73.8116 C.3       4 UNK        -0.1981 
     54 N         -78.3800   23.7496  -75.8912 N.am      4 UNK        -0.4224 
     55 C         -78.6816   24.0527  -77.1637 C.2       3 UNK         0.4895 
     56 O         -77.8339   24.1686  -78.0500 O.2       3 UNK        -0.5091 
     57 CA        -80.1635   24.3110  -77.5124 C.3       3 UNK         0.0250 
     58 CB        -80.6409   23.3309  -78.5977 C.3       3 UNK        -0.1996 
     59 N         -81.1012   24.2578  -76.3811 N.am      3 UNK        -0.4254 
     60 C         -81.1253   25.0881  -75.3283 C.2       2 UNK         0.5004 
     61 O         -80.3127   26.0014  -75.1644 O.2       2 UNK        -0.5226 
     62 CA        -82.1952   24.7738  -74.2617 C.3       2 UNK         0.0269 
     63 CB        -81.8835   23.4369  -73.5634 C.3       2 UNK        -0.1926 
     64 N         -82.3383   25.7976  -73.2236 N.am      2 UNK        -0.4687 
     65 C         -82.7177   27.0695  -73.4055 C.2       1 UNK         0.5165 
     66 O         -83.0143   27.5540  -74.4991 O.2       1 UNK        -0.5079 
     67 H67       -86.2660   26.7405  -69.4701 H         1 UNK         0.0900 
     68 H68       -85.8580   25.2104  -70.2515 H         1 UNK         0.0900 
     69 H69       -84.7042   25.9799  -69.1605 H         1 UNK         0.0900 
     70 H70       -83.0325   26.9792  -70.2619 H         1 UNK         0.2959 
     71 H71       -83.4179   28.8076  -72.4128 H         1 UNK         0.1079 
     72 H72       -81.6169   29.3045  -70.9853 H         1 UNK         0.0837 
     73 H73       -80.8628   28.8229  -72.4641 H         1 UNK         0.0837 
     74 H74       -78.6304   25.8836  -71.3691 H         1 UNK         0.0685 
     75 H75       -79.5825   26.4017  -72.7314 H         1 UNK         0.0685 
     76 H76       -78.9691   28.3948  -73.9444 H         1 UNK         0.1434 
     77 H77       -75.6497   30.7593  -72.6145 H         1 UNK         0.1329 
     78 H78       -77.1354   27.5712  -70.1603 H         1 UNK         0.1335 
     79 H79       -75.5045   29.1298  -69.2573 H         1 UNK         0.0680 
     80 H80       -75.0899   30.5810  -70.1306 H         1 UNK         0.0680 
     81 H81       -71.4644   29.7570  -70.7047 H         1 UNK         0.1032 
     82 H82       -72.5958   30.6807  -69.7620 H         1 UNK         0.1032 
     83 H83       -73.6384   31.6048  -71.7781 H         1 UNK         0.0461 
     84 H84       -71.4575   32.4684  -73.8643 H         1 UNK         0.3453 
     85 H85       -70.5594   33.6344  -72.9241 H         1 UNK         0.3453 
     86 H86       -73.6170   30.6025  -73.7233 H         1 UNK         0.2984 
     87 H87       -73.2387   29.0278  -75.2484 H         1 UNK         0.0554 
     88 H88       -70.6136   30.2579  -76.2587 H         1 UNK         0.0847 
     89 H89       -72.1683   31.0766  -76.1764 H         1 UNK         0.0847 
     90 H90       -71.9585   29.7203  -77.2683 H         1 UNK         0.0847 
     91 H91       -70.7028   27.8066  -75.9447 H         1 UNK         0.3141 
     92 H92       -70.2792   25.7048  -75.6761 H         1 UNK         0.0743 
     93 H93       -71.6693   24.3253  -73.3086 H         1 UNK         0.0784 
     94 H94       -70.1861   23.7887  -74.0961 H         1 UNK         0.0784 
     95 H95       -70.2086   25.2994  -73.1979 H         1 UNK         0.0784 
     96 H96       -73.0248   24.6681  -75.8560 H         1 UNK         0.3213 
     97 H97       -72.0869   22.5872  -78.6507 H         1 UNK         0.0855 
     98 H98       -73.7255   22.1586  -76.0936 H         1 UNK         0.0814 
     99 H99       -72.4434   21.1199  -76.6935 H         1 UNK         0.0814 
    100 H100      -73.9332   21.2824  -77.6087 H         1 UNK         0.0814 
    101 H101      -74.4222   24.0638  -77.5880 H         1 UNK         0.3105 
    102 H102      -74.3559   26.5091  -80.0947 H         1 UNK         0.0547 
    103 H103      -75.2462   24.7077  -81.5463 H         1 UNK         0.0837 
    104 H104      -76.1720   24.0422  -80.2092 H         1 UNK         0.0837 
    105 H105      -76.5674   25.6349  -80.8540 H         1 UNK         0.0837 
    106 H106      -76.3538   25.5193  -78.2231 H         1 UNK         0.3020 
    107 H107      -75.1928   27.3796  -75.4427 H         1 UNK         0.1245 
    108 H108      -77.7864   28.1689  -75.9275 H         1 UNK         0.0781 
    109 H109      -77.1642   28.4275  -77.5130 H         1 UNK         0.0781 
    110 H110      -78.3654   30.4516  -75.1388 H         1 UNK         0.0836 
    111 H111      -77.1739   31.5322  -74.4690 H         1 UNK         0.0836 
    112 H112      -77.6128   26.0224  -75.7543 H         1 UNK         0.3022 
    113 H113      -76.6052   22.6837  -75.7912 H         1 UNK         0.0747 
    114 H114      -77.7722   22.4089  -73.6159 H         1 UNK         0.0793 
    115 H115      -76.1950   23.1342  -73.3568 H         1 UNK         0.0793 
    116 H116      -77.6365   24.1387  -73.2923 H         1 UNK         0.0793 
    117 H117      -79.1494   23.6997  -75.2410 H         1 UNK         0.3047 
    118 H118      -80.2097   25.3212  -77.9244 H         1 UNK         0.0822 
    119 H119      -81.6542   23.5630  -78.9260 H         1 UNK         0.0807 
    120 H120      -80.6289   22.2996  -78.2428 H         1 UNK         0.0807 
    121 H121      -80.0012   23.3784  -79.4803 H         1 UNK         0.0807 
    122 H122      -81.7905   23.5203  -76.4211 H         1 UNK         0.2946 
    123 H123      -83.1562   24.6927  -74.7746 H         1 UNK         0.1144 
    124 H124      -81.8347   22.6110  -74.2740 H         1 UNK         0.0793 
    125 H125      -82.6553   23.1808  -72.8370 H         1 UNK         0.0793 
    126 H126      -80.9286   23.4712  -73.0367 H         1 UNK         0.0793 
    127 H127      -82.1119   25.5157  -72.2812 H         1 UNK         0.2896 
@<TRIPOS>BOND
     1    1    2 1    
     2    1   67 1    
     3    1   68 1    
     4    1   69 1    
     5    2    3 2    
     6    2    4 am   BACKBONE|DICT|INTERRES
     7    4    5 1    
     8    4   70 1    
     9    5    6 1    
    10    5   65 1    
    11    5   71 1    
    12    6    7 1    
    13    6   72 1    
    14    6   73 1    
    15    7    8 1    
    16    8    9 1    
    17    8   74 1    
    18    8   75 1    
    19    9   10 ar   
    20    9   14 ar   
    21   10   11 ar   
    22   10   76 1    
    23   11   12 ar   
    24   11   48 1    
    25   12   13 ar   
    26   12   77 1    
    27   13   14 ar   
    28   13   15 1    
    29   14   78 1    
    30   15   16 1    
    31   15   79 1    
    32   15   80 1    
    33   16   17 1    
    34   17   18 1    
    35   17   81 1    
    36   17   82 1    
    37   18   19 1    
    38   18   22 1    
    39   18   83 1    
    40   19   20 am   BACKBONE|DICT|INTERRES
    41   19   21 2    
    42   20   84 1    
    43   20   85 1    
    44   22   23 am   BACKBONE|DICT|INTERRES
    45   22   86 1    
    46   23   24 2    
    47   23   25 1    
    48   25   26 1    
    49   25   27 1    
    50   25   87 1    
    51   26   88 1    
    52   26   89 1    
    53   26   90 1    
    54   27   28 am   BACKBONE|DICT|INTERRES
    55   27   91 1    
    56   28   29 2    
    57   28   30 1    
    58   30   31 1    
    59   30   32 1    
    60   30   92 1    
    61   31   93 1    
    62   31   94 1    
    63   31   95 1    
    64   32   33 am   BACKBONE|DICT|INTERRES
    65   32   96 1    
    66   33   34 2    
    67   33   35 1    
    68   35   36 1    
    69   35   37 1    
    70   35   97 1    
    71   36   98 1    
    72   36   99 1    
    73   36  100 1    
    74   37   38 am   BACKBONE|DICT|INTERRES
    75   37  101 1    
    76   38   39 2    
    77   38   40 1    
    78   40   41 1    
    79   40   42 1    
    80   40  102 1    
    81   41  103 1    
    82   41  104 1    
    83   41  105 1    
    84   42   43 am   BACKBONE|DICT|INTERRES
    85   42  106 1    
    86   43   44 2    
    87   43   45 1    
    88   45   46 1    
    89   45   49 1    
    90   45  107 1    
    91   46   47 1    
    92   46  108 1    
    93   46  109 1    
    94   47   48 1    
    95   48  110 1    
    96   48  111 1    
    97   49   50 am   BACKBONE|DICT|INTERRES
    98   49  112 1    
    99   50   51 2    
   100   50   52 1    
   101   52   53 1    
   102   52   54 1    
   103   52  113 1    
   104   53  114 1    
   105   53  115 1    
   106   53  116 1    
   107   54   55 am   BACKBONE|DICT|INTERRES
   108   54  117 1    
   109   55   56 2    
   110   55   57 1    
   111   57   58 1    
   112   57   59 1    
   113   57  118 1    
   114   58  119 1    
   115   58  120 1    
   116   58  121 1    
   117   59   60 am   BACKBONE|DICT|INTERRES
   118   59  122 1    
   119   60   61 2    
   120   60   62 1    
   121   62   63 1    
   122   62   64 1    
   123   62  123 1    
   124   63  124 1    
   125   63  125 1    
   126   63  126 1    
   127   64   65 am   BACKBONE|DICT|INTERRES
   128   64  127 1    
   129   65   66 2    
@<TRIPOS>SUBSTRUCTURE
     1 UNK         1 GROUP             0       ****    0 ROOT    
