@<TRIPOS>MOLECULE
3R135
127   129    1
SMALL
USER_CHARGES


@<TRIPOS>ATOM
      1 CA        -81.9758   30.8999  -75.4181 C.3       0 UNK        -0.1998 
      2 C         -81.3610   29.6843  -74.7418 C.2       0 UNK         0.4909 
      3 O         -80.4222   29.0942  -75.2791 O.2       0 UNK        -0.5240 
      4 N         -81.8778   29.3126  -73.5637 N.am      1 UNK        -0.4739 
      5 CA        -81.4248   28.1584  -72.7829 C.3       1 UNK         0.0864 
      6 C6        -81.8525   28.2391  -71.2924 C.3       11 UNK        -0.0881 
      7 S7        -81.4450   29.8425  -70.5118 S.3       11 UNK        -0.2682 
      8 C8        -79.8752   29.4882  -69.6522 C.3       11 UNK         0.0289 
      9 C9        -78.7390   29.1040  -70.5945 C.ar      11 UNK        -0.0687 
     10 C10       -77.9547   27.9810  -70.3122 C.ar      11 UNK        -0.0823 
     11 C11       -76.9117   27.6078  -71.1642 C.ar      11 UNK        -0.0830 
     12 C12       -76.6668   28.3598  -72.3169 C.ar      11 UNK        -0.1021 
     13 C13       -77.4296   29.4947  -72.6044 C.ar      11 UNK        -0.0753 
     14 C14       -78.4540   29.8713  -71.7311 C.ar      11 UNK        -0.0933 
     15 C15       -77.1619   30.2881  -73.8751 C.3       11 UNK         0.0166 
     16 S16       -75.5540   31.1494  -73.8124 S.3       11 UNK        -0.2615 
     17 C17       -74.9722   31.0081  -75.5424 C.3       11 UNK        -0.0865 
     18 CA        -73.4413   30.7637  -75.7495 C.3       10 UNK         0.0862 
     19 C         -72.5722   32.0593  -75.8148 C.2       10 UNK         0.5551 
     20 N         -71.2511   31.9550  -75.7350 N.am      10 UNK        -0.7319 
     21 O         -73.0849   33.1636  -75.9820 O.2       10 UNK        -0.5018 
     22 N         -72.8955   29.6270  -74.9716 N.am      10 UNK        -0.4509 
     23 C         -72.3955   29.6684  -73.7254 C.2       10 UNK         0.4899 
     24 O         -72.2937   30.6999  -73.0604 O.2       10 UNK        -0.4839 
     25 CA        -71.9221   28.3575  -73.0747 C.3       9 UNK         0.0222 
     26 CB        -72.7277   28.0875  -71.7937 C.3       9 UNK        -0.1966 
     27 N         -72.0012   27.1715  -73.9364 N.am      9 UNK        -0.4218 
     28 C         -70.9317   26.5869  -74.4971 C.2       9 UNK         0.5020 
     29 O         -69.8127   27.1008  -74.5408 O.2       9 UNK        -0.5274 
     30 CA        -71.1215   25.1723  -75.0660 C.3       8 UNK         0.0270 
     31 CB        -71.3553   24.1526  -73.9368 C.3       8 UNK        -0.1976 
     32 N         -72.2338   25.1154  -76.0100 N.am      8 UNK        -0.4313 
     33 C         -72.1060   25.1829  -77.3423 C.2       8 UNK         0.5041 
     34 O         -71.0229   25.2518  -77.9254 O.2       8 UNK        -0.5577 
     35 CA        -73.4006   25.1733  -78.1795 C.3       7 UNK         0.0284 
     36 CB        -73.6922   23.7539  -78.6936 C.3       7 UNK        -0.1958 
     37 N         -74.5768   25.6786  -77.4656 N.am      7 UNK        -0.4454 
     38 C         -74.6903   26.9142  -76.9601 C.2       7 UNK         0.5089 
     39 O         -73.8379   27.7904  -77.0944 O.2       7 UNK        -0.5125 
     40 CA        -75.9264   27.2039  -76.0988 C.3       6 UNK         0.0408 
     41 CB        -77.1001   27.6772  -76.9696 C.3       6 UNK        -0.1791 
     42 N         -76.3514   26.0657  -75.2864 N.am      6 UNK        -0.4762 
     43 C         -75.6278   25.4648  -74.3314 C.2       6 UNK         0.5007 
     44 O         -74.4750   25.7882  -74.0402 O.2       6 UNK        -0.5032 
     45 CA        -76.3082   24.2817  -73.6186 C.3       5 UNK         0.0783 
     46 C46       -77.4277   24.7578  -72.6510 C.3       11 UNK        -0.0857 
     47 S47       -76.9059   24.8215  -70.9086 S.3       11 UNK        -0.2512 
     48 C48       -76.0295   26.4135  -70.8214 C.3       11 UNK         0.0225 
     49 N         -76.8289   23.3464  -74.6150 N.am      5 UNK        -0.4615 
     50 C         -76.0860   22.5065  -75.3460 C.2       4 UNK         0.5053 
     51 O         -74.8723   22.3636  -75.2029 O.2       4 UNK        -0.5105 
     52 CA        -76.8219   21.6972  -76.4296 C.3       4 UNK         0.0263 
     53 CB        -77.2205   20.3156  -75.8876 C.3       4 UNK        -0.1981 
     54 N         -78.0143   22.3757  -76.9504 N.am      4 UNK        -0.4224 
     55 C         -77.9823   23.4902  -77.6945 C.2       3 UNK         0.4895 
     56 O         -76.9440   24.0555  -78.0369 O.2       3 UNK        -0.5091 
     57 CA        -79.3395   24.1080  -78.0747 C.3       3 UNK         0.0250 
     58 CB        -79.9630   23.3584  -79.2632 C.3       3 UNK        -0.1996 
     59 N         -80.3079   24.1810  -76.9703 N.am      3 UNK        -0.4254 
     60 C         -80.0866   24.7994  -75.8024 C.2       2 UNK         0.5004 
     61 O         -78.9967   25.2737  -75.4755 O.2       2 UNK        -0.5226 
     62 CA        -81.2549   24.8961  -74.8173 C.3       2 UNK         0.0269 
     63 CB        -81.3665   23.6285  -73.9533 C.3       2 UNK        -0.1926 
     64 N         -81.0002   26.0573  -73.9700 N.am      2 UNK        -0.4687 
     65 C         -81.9306   26.8652  -73.4506 C.2       1 UNK         0.5165 
     66 O         -83.1449   26.6441  -73.5098 O.2       1 UNK        -0.5079 
     67 H67       -81.2095   31.6558  -75.5908 H         1 UNK         0.0900 
     68 H68       -82.7668   31.3468  -74.8115 H         1 UNK         0.0900 
     69 H69       -82.4027   30.6202  -76.3848 H         1 UNK         0.0900 
     70 H70       -82.6534   29.8262  -73.1685 H         1 UNK         0.2959 
     71 H71       -80.3341   28.1467  -72.8107 H         1 UNK         0.1079 
     72 H72       -82.9309   28.0985  -71.1948 H         1 UNK         0.0837 
     73 H73       -81.3908   27.4304  -70.7214 H         1 UNK         0.0837 
     74 H74       -79.5758   30.3754  -69.0927 H         1 UNK         0.0685 
     75 H75       -80.0523   28.7038  -68.9143 H         1 UNK         0.0685 
     76 H76       -78.1503   27.3938  -69.4252 H         1 UNK         0.1434 
     77 H77       -75.8714   28.0767  -72.9908 H         1 UNK         0.1329 
     78 H78       -79.0507   30.7462  -71.9494 H         1 UNK         0.1335 
     79 H79       -77.9482   31.0249  -74.0464 H         1 UNK         0.0680 
     80 H80       -77.2094   29.6024  -74.7190 H         1 UNK         0.0680 
     81 H81       -75.3043   31.8950  -76.0844 H         1 UNK         0.1032 
     82 H82       -75.5042   30.1910  -76.0250 H         1 UNK         0.1032 
     83 H83       -73.3638   30.4119  -76.7788 H         1 UNK         0.0461 
     84 H84       -70.6843   32.7864  -75.7880 H         1 UNK         0.3453 
     85 H85       -70.8195   31.0552  -75.5972 H         1 UNK         0.3453 
     86 H86       -72.9211   28.7380  -75.4569 H         1 UNK         0.2984 
     87 H87       -70.8863   28.5201  -72.7699 H         1 UNK         0.0554 
     88 H88       -72.4590   27.1344  -71.3384 H         1 UNK         0.0847 
     89 H89       -73.7959   28.0816  -71.9966 H         1 UNK         0.0847 
     90 H90       -72.5492   28.8640  -71.0484 H         1 UNK         0.0847 
     91 H91       -72.8964   26.6847  -73.9596 H         1 UNK         0.3141 
     92 H92       -70.1935   24.8917  -75.5694 H         1 UNK         0.0743 
     93 H93       -70.5350   24.1722  -73.2180 H         1 UNK         0.0784 
     94 H94       -72.2761   24.3495  -73.3866 H         1 UNK         0.0784 
     95 H95       -71.4162   23.1374  -74.3302 H         1 UNK         0.0784 
     96 H96       -73.1649   25.0902  -75.6125 H         1 UNK         0.3213 
     97 H97       -73.2344   25.8241  -79.0404 H         1 UNK         0.0855 
     98 H98       -72.8375   23.3509  -79.2388 H         1 UNK         0.0814 
     99 H99       -74.5425   23.7454  -79.3758 H         1 UNK         0.0814 
    100 H100      -73.9118   23.0670  -77.8751 H         1 UNK         0.0814 
    101 H101      -75.3686   25.0465  -77.3800 H         1 UNK         0.3105 
    102 H102      -75.6566   28.0004  -75.4059 H         1 UNK         0.0547 
    103 H103      -76.8281   28.5584  -77.5516 H         1 UNK         0.0837 
    104 H104      -77.4137   26.9049  -77.6727 H         1 UNK         0.0837 
    105 H105      -77.9666   27.9420  -76.3624 H         1 UNK         0.0837 
    106 H106      -77.3039   25.7343  -75.4432 H         1 UNK         0.3020 
    107 H107      -75.5377   23.7569  -73.0484 H         1 UNK         0.1245 
    108 H108      -78.2601   24.0538  -72.6707 H         1 UNK         0.0781 
    109 H109      -77.8688   25.7116  -72.9460 H         1 UNK         0.0781 
    110 H110      -75.1615   26.3623  -71.4765 H         1 UNK         0.0836 
    111 H111      -75.6362   26.5422  -69.8122 H         1 UNK         0.0836 
    112 H112      -77.8046   23.4533  -74.8536 H         1 UNK         0.3022 
    113 H113      -76.1259   21.5527  -77.2590 H         1 UNK         0.0747 
    114 H114      -77.6744   19.6999  -76.6643 H         1 UNK         0.0793 
    115 H115      -76.3477   19.7754  -75.5180 H         1 UNK         0.0793 
    116 H116      -77.9290   20.3930  -75.0619 H         1 UNK         0.0793 
    117 H117      -78.9120   21.9796  -76.7120 H         1 UNK         0.3047 
    118 H118      -79.1427   25.1340  -78.3927 H         1 UNK         0.0822 
    119 H119      -80.8592   23.8632  -79.6246 H         1 UNK         0.0807 
    120 H120      -80.2360   22.3356  -79.0008 H         1 UNK         0.0807 
    121 H121      -79.2653   23.3051  -80.1004 H         1 UNK         0.0807 
    122 H122      -81.2254   23.7993  -77.1519 H         1 UNK         0.2946 
    123 H123      -82.1775   25.0463  -75.3830 H         1 UNK         0.1144 
    124 H124      -82.1889   23.7078  -73.2421 H         1 UNK         0.0793 
    125 H125      -80.4542   23.4424  -73.3866 H         1 UNK         0.0793 
    126 H126      -81.5558   22.7482  -74.5689 H         1 UNK         0.0793 
    127 H127      -80.0267   26.3451  -73.9699 H         1 UNK         0.2896 
@<TRIPOS>BOND
     1    1    2 1    
     2    1   67 1    
     3    1   68 1    
     4    1   69 1    
     5    2    3 2    
     6    2    4 am   BACKBONE|DICT|INTERRES
     7    4    5 1    
     8    4   70 1    
     9    5    6 1    
    10    5   65 1    
    11    5   71 1    
    12    6    7 1    
    13    6   72 1    
    14    6   73 1    
    15    7    8 1    
    16    8    9 1    
    17    8   74 1    
    18    8   75 1    
    19    9   10 ar   
    20    9   14 ar   
    21   10   11 ar   
    22   10   76 1    
    23   11   12 ar   
    24   11   48 1    
    25   12   13 ar   
    26   12   77 1    
    27   13   14 ar   
    28   13   15 1    
    29   14   78 1    
    30   15   16 1    
    31   15   79 1    
    32   15   80 1    
    33   16   17 1    
    34   17   18 1    
    35   17   81 1    
    36   17   82 1    
    37   18   19 1    
    38   18   22 1    
    39   18   83 1    
    40   19   20 am   BACKBONE|DICT|INTERRES
    41   19   21 2    
    42   20   84 1    
    43   20   85 1    
    44   22   23 am   BACKBONE|DICT|INTERRES
    45   22   86 1    
    46   23   24 2    
    47   23   25 1    
    48   25   26 1    
    49   25   27 1    
    50   25   87 1    
    51   26   88 1    
    52   26   89 1    
    53   26   90 1    
    54   27   28 am   BACKBONE|DICT|INTERRES
    55   27   91 1    
    56   28   29 2    
    57   28   30 1    
    58   30   31 1    
    59   30   32 1    
    60   30   92 1    
    61   31   93 1    
    62   31   94 1    
    63   31   95 1    
    64   32   33 am   BACKBONE|DICT|INTERRES
    65   32   96 1    
    66   33   34 2    
    67   33   35 1    
    68   35   36 1    
    69   35   37 1    
    70   35   97 1    
    71   36   98 1    
    72   36   99 1    
    73   36  100 1    
    74   37   38 am   BACKBONE|DICT|INTERRES
    75   37  101 1    
    76   38   39 2    
    77   38   40 1    
    78   40   41 1    
    79   40   42 1    
    80   40  102 1    
    81   41  103 1    
    82   41  104 1    
    83   41  105 1    
    84   42   43 am   BACKBONE|DICT|INTERRES
    85   42  106 1    
    86   43   44 2    
    87   43   45 1    
    88   45   46 1    
    89   45   49 1    
    90   45  107 1    
    91   46   47 1    
    92   46  108 1    
    93   46  109 1    
    94   47   48 1    
    95   48  110 1    
    96   48  111 1    
    97   49   50 am   BACKBONE|DICT|INTERRES
    98   49  112 1    
    99   50   51 2    
   100   50   52 1    
   101   52   53 1    
   102   52   54 1    
   103   52  113 1    
   104   53  114 1    
   105   53  115 1    
   106   53  116 1    
   107   54   55 am   BACKBONE|DICT|INTERRES
   108   54  117 1    
   109   55   56 2    
   110   55   57 1    
   111   57   58 1    
   112   57   59 1    
   113   57  118 1    
   114   58  119 1    
   115   58  120 1    
   116   58  121 1    
   117   59   60 am   BACKBONE|DICT|INTERRES
   118   59  122 1    
   119   60   61 2    
   120   60   62 1    
   121   62   63 1    
   122   62   64 1    
   123   62  123 1    
   124   63  124 1    
   125   63  125 1    
   126   63  126 1    
   127   64   65 am   BACKBONE|DICT|INTERRES
   128   64  127 1    
   129   65   66 2    
@<TRIPOS>SUBSTRUCTURE
     1 UNK         1 GROUP             0       ****    0 ROOT    
