@<TRIPOS>MOLECULE
3R135
127   129    1
SMALL
USER_CHARGES


@<TRIPOS>ATOM
      1 CA        -84.0189   24.7085  -74.8376 C.3       0 UNK        -0.1998 
      2 C         -83.0136   25.8404  -74.6960 C.2       0 UNK         0.4909 
      3 O         -82.6144   26.4328  -75.6987 O.2       0 UNK        -0.5240 
      4 N         -82.5974   26.1501  -73.4608 N.am      1 UNK        -0.4739 
      5 CA        -81.6389   27.2181  -73.1564 C.3       1 UNK         0.0864 
      6 C6        -81.5820   27.5242  -71.6402 C.3       11 UNK        -0.0881 
      7 S7        -81.1876   29.2769  -71.3253 S.3       11 UNK        -0.2682 
      8 C8        -79.8423   29.1541  -70.1074 C.3       11 UNK         0.0289 
      9 C9        -78.5130   28.7720  -70.7422 C.ar      11 UNK        -0.0687 
     10 C10       -77.9757   27.4961  -70.5497 C.ar      11 UNK        -0.0823 
     11 C11       -76.7197   27.1671  -71.0700 C.ar      11 UNK        -0.0830 
     12 C12       -76.0054   28.1206  -71.8024 C.ar      11 UNK        -0.1021 
     13 C13       -76.5307   29.4025  -71.9940 C.ar      11 UNK        -0.0753 
     14 C14       -77.7872   29.7194  -71.4696 C.ar      11 UNK        -0.0933 
     15 C15       -75.7210   30.4643  -72.7195 C.3       11 UNK         0.0166 
     16 S16       -74.6861   31.3760  -71.5349 S.3       11 UNK        -0.2615 
     17 C17       -74.0087   32.7168  -72.5746 C.3       11 UNK        -0.0865 
     18 CA        -73.0446   32.2483  -73.6992 C.3       10 UNK         0.0862 
     19 C         -72.4077   33.4738  -74.4187 C.2       10 UNK         0.5551 
     20 N         -71.0966   33.6719  -74.3610 N.am      10 UNK        -0.7319 
     21 O         -73.1210   34.2586  -75.0389 O.2       10 UNK        -0.5018 
     22 N         -72.0989   31.2249  -73.2231 N.am      10 UNK        -0.4509 
     23 C         -71.3988   30.4001  -74.0101 C.2       10 UNK         0.4899 
     24 O         -71.3677   30.4937  -75.2385 O.2       10 UNK        -0.4839 
     25 CA        -70.5911   29.2784  -73.3211 C.3       9 UNK         0.0222 
     26 CB        -70.9442   29.0630  -71.8298 C.3       9 UNK        -0.1966 
     27 N         -70.6861   28.0164  -74.0668 N.am      9 UNK        -0.4218 
     28 C         -71.8051   27.3279  -74.3376 C.2       9 UNK         0.5020 
     29 O         -72.9231   27.6075  -73.8957 O.2       9 UNK        -0.5274 
     30 CA        -71.6409   26.0958  -75.2428 C.3       8 UNK         0.0270 
     31 CB        -71.5580   24.8149  -74.3977 C.3       8 UNK        -0.1976 
     32 N         -72.7613   25.9971  -76.1807 N.am      8 UNK        -0.4313 
     33 C         -72.9385   26.8236  -77.2231 C.2       8 UNK         0.5041 
     34 O         -72.0921   27.6450  -77.5816 O.2       8 UNK        -0.5577 
     35 CA        -74.2814   26.7487  -77.9791 C.3       7 UNK         0.0284 
     36 CB        -74.1685   27.1861  -79.4555 C.3       7 UNK        -0.1958 
     37 N         -74.9621   25.4562  -77.8619 N.am      7 UNK        -0.4454 
     38 C         -74.5417   24.2643  -78.3095 C.2       7 UNK         0.5089 
     39 O         -73.5000   24.0962  -78.9459 O.2       7 UNK        -0.5125 
     40 CA        -75.4404   23.0570  -77.9712 C.3       6 UNK         0.0408 
     41 CB        -74.6950   21.7104  -78.0809 C.3       6 UNK        -0.1791 
     42 N         -76.1090   23.1674  -76.6674 N.am      6 UNK        -0.4762 
     43 C         -75.5294   23.3071  -75.4625 C.2       6 UNK         0.5007 
     44 O         -74.3111   23.3991  -75.3149 O.2       6 UNK        -0.5032 
     45 CA        -76.4380   23.3703  -74.2118 C.3       5 UNK         0.0783 
     46 C46       -76.0690   24.5689  -73.3025 C.3       11 UNK        -0.0857 
     47 S47       -76.9353   24.4744  -71.7031 S.3       11 UNK        -0.2512 
     48 C48       -76.1134   25.8032  -70.7753 C.3       11 UNK         0.0225 
     49 N         -77.8645   23.3762  -74.5511 N.am      5 UNK        -0.4615 
     50 C         -78.5969   22.2987  -74.8564 C.2       4 UNK         0.5053 
     51 O         -78.1745   21.1440  -74.8054 O.2       4 UNK        -0.5105 
     52 CA        -80.0244   22.5646  -75.3632 C.3       4 UNK         0.0263 
     53 CB        -81.0293   22.5442  -74.2008 C.3       4 UNK        -0.1981 
     54 N         -80.1206   23.8319  -76.0996 N.am      4 UNK        -0.4224 
     55 C         -79.5759   24.0347  -77.3101 C.2       3 UNK         0.4895 
     56 O         -79.0171   23.1516  -77.9602 O.2       3 UNK        -0.5091 
     57 CA        -79.6032   25.4658  -77.8718 C.3       3 UNK         0.0250 
     58 CB        -80.8942   25.7170  -78.6662 C.3       3 UNK        -0.1996 
     59 N         -79.4451   26.4856  -76.8315 N.am      3 UNK        -0.4254 
     60 C         -78.2991   26.7102  -76.1691 C.2       2 UNK         0.5004 
     61 O         -77.2536   26.1044  -76.3974 O.2       2 UNK        -0.5226 
     62 CA        -78.3193   27.7575  -75.0408 C.3       2 UNK         0.0269 
     63 CB        -77.8745   29.1268  -75.5762 C.3       2 UNK        -0.1926 
     64 N         -79.6195   27.8906  -74.3781 N.am      2 UNK        -0.4687 
     65 C         -80.2465   26.8964  -73.7351 C.2       1 UNK         0.5165 
     66 O         -79.7872   25.7567  -73.6264 O.2       1 UNK        -0.5079 
     67 H67       -85.0007   25.1108  -75.0854 H         1 UNK         0.0900 
     68 H68       -83.7174   24.0349  -75.6393 H         1 UNK         0.0900 
     69 H69       -84.1088   24.1274  -73.9199 H         1 UNK         0.0900 
     70 H70       -82.9282   25.6127  -72.6723 H         1 UNK         0.2959 
     71 H71       -82.0192   28.1045  -73.6703 H         1 UNK         0.1079 
     72 H72       -82.5553   27.3436  -71.1810 H         1 UNK         0.0837 
     73 H73       -80.8849   26.8628  -71.1216 H         1 UNK         0.0837 
     74 H74       -80.1215   28.4468  -69.3248 H         1 UNK         0.0685 
     75 H75       -79.7332   30.1207  -69.6133 H         1 UNK         0.0685 
     76 H76       -78.5216   26.7622  -69.9728 H         1 UNK         0.1434 
     77 H77       -75.0256   27.8802  -72.1938 H         1 UNK         0.1329 
     78 H78       -78.1894   30.7146  -71.6020 H         1 UNK         0.1335 
     79 H79       -76.3838   31.1589  -73.2375 H         1 UNK         0.0680 
     80 H80       -75.0897   30.0010  -73.4798 H         1 UNK         0.0680 
     81 H81       -73.4938   33.4094  -71.9058 H         1 UNK         0.1032 
     82 H82       -74.8418   33.2799  -72.9999 H         1 UNK         0.1032 
     83 H83       -73.6589   31.7602  -74.4582 H         1 UNK         0.0461 
     84 H84       -70.5075   33.0265  -73.8600 H         1 UNK         0.3453 
     85 H85       -70.6932   34.4667  -74.8314 H         1 UNK         0.3453 
     86 H86       -72.0786   31.0793  -72.2246 H         1 UNK         0.2984 
     87 H87       -69.5450   29.5832  -73.3716 H         1 UNK         0.0554 
     88 H88       -70.7017   29.9422  -71.2319 H         1 UNK         0.0847 
     89 H89       -70.3778   28.2320  -71.4094 H         1 UNK         0.0847 
     90 H90       -72.0034   28.8441  -71.6856 H         1 UNK         0.0847 
     91 H91       -69.8271   27.7088  -74.5016 H         1 UNK         0.3141 
     92 H92       -70.7182   26.1900  -75.8196 H         1 UNK         0.0743 
     93 H93       -70.6917   24.8393  -73.7355 H         1 UNK         0.0784 
     94 H94       -71.4631   23.9291  -75.0261 H         1 UNK         0.0784 
     95 H95       -72.4423   24.6879  -73.7717 H         1 UNK         0.0784 
     96 H96       -73.4876   25.3295  -75.9497 H         1 UNK         0.3213 
     97 H97       -74.9342   27.4660  -77.4791 H         1 UNK         0.0855 
     98 H98       -73.4689   26.5612  -80.0111 H         1 UNK         0.0814 
     99 H99       -73.8145   28.2148  -79.5328 H         1 UNK         0.0814 
    100 H100      -75.1344   27.1399  -79.9582 H         1 UNK         0.0814 
    101 H101      -75.8330   25.4871  -77.3303 H         1 UNK         0.3105 
    102 H102      -76.2352   23.0555  -78.7183 H         1 UNK         0.0547 
    103 H103      -75.3546   20.8724  -77.8563 H         1 UNK         0.0837 
    104 H104      -73.8457   21.6620  -77.3986 H         1 UNK         0.0837 
    105 H105      -74.3104   21.5560  -79.0897 H         1 UNK         0.0837 
    106 H106      -77.1201   23.1387  -76.7026 H         1 UNK         0.3020 
    107 H107      -76.2246   22.4553  -73.6542 H         1 UNK         0.1245 
    108 H108      -76.3073   25.5166  -73.7865 H         1 UNK         0.0781 
    109 H109      -74.9967   24.5877  -73.0987 H         1 UNK         0.0781 
    110 H110      -75.0421   25.7958  -70.9825 H         1 UNK         0.0836 
    111 H111      -76.2136   25.5952  -69.7090 H         1 UNK         0.0836 
    112 H112      -78.3160   24.2823  -74.5551 H         1 UNK         0.3022 
    113 H113      -80.2849   21.7531  -76.0463 H         1 UNK         0.0747 
    114 H114      -82.0538   22.5999  -74.5645 H         1 UNK         0.0793 
    115 H115      -80.9444   21.6180  -73.6306 H         1 UNK         0.0793 
    116 H116      -80.8685   23.3676  -73.5049 H         1 UNK         0.0793 
    117 H117      -80.5142   24.6216  -75.6054 H         1 UNK         0.3047 
    118 H118      -78.7621   25.5618  -78.5624 H         1 UNK         0.0822 
    119 H119      -80.9066   26.7173  -79.0993 H         1 UNK         0.0807 
    120 H120      -81.7833   25.6082  -78.0452 H         1 UNK         0.0807 
    121 H121      -80.9865   25.0072  -79.4894 H         1 UNK         0.0807 
    122 H122      -80.2727   27.0025  -76.5651 H         1 UNK         0.2946 
    123 H123      -77.6018   27.4365  -74.2829 H         1 UNK         0.1144 
    124 H124      -77.8453   29.8726  -74.7825 H         1 UNK         0.0793 
    125 H125      -78.5436   29.4932  -76.3557 H         1 UNK         0.0793 
    126 H126      -76.8725   29.0701  -76.0041 H         1 UNK         0.0793 
    127 H127      -80.0562   28.8004  -74.4162 H         1 UNK         0.2896 
@<TRIPOS>BOND
     1    1    2 1    
     2    1   67 1    
     3    1   68 1    
     4    1   69 1    
     5    2    3 2    
     6    2    4 am   BACKBONE|DICT|INTERRES
     7    4    5 1    
     8    4   70 1    
     9    5    6 1    
    10    5   65 1    
    11    5   71 1    
    12    6    7 1    
    13    6   72 1    
    14    6   73 1    
    15    7    8 1    
    16    8    9 1    
    17    8   74 1    
    18    8   75 1    
    19    9   10 ar   
    20    9   14 ar   
    21   10   11 ar   
    22   10   76 1    
    23   11   12 ar   
    24   11   48 1    
    25   12   13 ar   
    26   12   77 1    
    27   13   14 ar   
    28   13   15 1    
    29   14   78 1    
    30   15   16 1    
    31   15   79 1    
    32   15   80 1    
    33   16   17 1    
    34   17   18 1    
    35   17   81 1    
    36   17   82 1    
    37   18   19 1    
    38   18   22 1    
    39   18   83 1    
    40   19   20 am   BACKBONE|DICT|INTERRES
    41   19   21 2    
    42   20   84 1    
    43   20   85 1    
    44   22   23 am   BACKBONE|DICT|INTERRES
    45   22   86 1    
    46   23   24 2    
    47   23   25 1    
    48   25   26 1    
    49   25   27 1    
    50   25   87 1    
    51   26   88 1    
    52   26   89 1    
    53   26   90 1    
    54   27   28 am   BACKBONE|DICT|INTERRES
    55   27   91 1    
    56   28   29 2    
    57   28   30 1    
    58   30   31 1    
    59   30   32 1    
    60   30   92 1    
    61   31   93 1    
    62   31   94 1    
    63   31   95 1    
    64   32   33 am   BACKBONE|DICT|INTERRES
    65   32   96 1    
    66   33   34 2    
    67   33   35 1    
    68   35   36 1    
    69   35   37 1    
    70   35   97 1    
    71   36   98 1    
    72   36   99 1    
    73   36  100 1    
    74   37   38 am   BACKBONE|DICT|INTERRES
    75   37  101 1    
    76   38   39 2    
    77   38   40 1    
    78   40   41 1    
    79   40   42 1    
    80   40  102 1    
    81   41  103 1    
    82   41  104 1    
    83   41  105 1    
    84   42   43 am   BACKBONE|DICT|INTERRES
    85   42  106 1    
    86   43   44 2    
    87   43   45 1    
    88   45   46 1    
    89   45   49 1    
    90   45  107 1    
    91   46   47 1    
    92   46  108 1    
    93   46  109 1    
    94   47   48 1    
    95   48  110 1    
    96   48  111 1    
    97   49   50 am   BACKBONE|DICT|INTERRES
    98   49  112 1    
    99   50   51 2    
   100   50   52 1    
   101   52   53 1    
   102   52   54 1    
   103   52  113 1    
   104   53  114 1    
   105   53  115 1    
   106   53  116 1    
   107   54   55 am   BACKBONE|DICT|INTERRES
   108   54  117 1    
   109   55   56 2    
   110   55   57 1    
   111   57   58 1    
   112   57   59 1    
   113   57  118 1    
   114   58  119 1    
   115   58  120 1    
   116   58  121 1    
   117   59   60 am   BACKBONE|DICT|INTERRES
   118   59  122 1    
   119   60   61 2    
   120   60   62 1    
   121   62   63 1    
   122   62   64 1    
   123   62  123 1    
   124   63  124 1    
   125   63  125 1    
   126   63  126 1    
   127   64   65 am   BACKBONE|DICT|INTERRES
   128   64  127 1    
   129   65   66 2    
@<TRIPOS>SUBSTRUCTURE
     1 UNK         1 GROUP             0       ****    0 ROOT    
