@<TRIPOS>MOLECULE
3R135
127   129    1
SMALL
USER_CHARGES


@<TRIPOS>ATOM
      1 CA        -82.4424   23.9964  -69.8221 C.3       0 UNK        -0.1998 
      2 C         -81.0059   23.8608  -70.3188 C.2       0 UNK         0.4909 
      3 O         -80.3219   22.9120  -69.9397 O.2       0 UNK        -0.5240 
      4 N         -80.5033   24.7711  -71.1602 N.am      1 UNK        -0.4739 
      5 CA        -81.1899   25.9256  -71.7354 C.3       1 UNK         0.0864 
      6 C6        -81.0168   27.1813  -70.8472 C.3       11 UNK        -0.0881 
      7 S7        -82.1023   28.5600  -71.3468 S.3       11 UNK        -0.2682 
      8 C8        -81.1638   30.0022  -70.7454 C.3       11 UNK         0.0289 
      9 C9        -79.8695   30.2122  -71.5195 C.ar      11 UNK        -0.0687 
     10 C10       -79.9046   30.7202  -72.8217 C.ar      11 UNK        -0.0823 
     11 C11       -78.7236   30.9034  -73.5488 C.ar      11 UNK        -0.0830 
     12 C12       -77.4984   30.5952  -72.9479 C.ar      11 UNK        -0.1021 
     13 C13       -77.4523   30.0644  -71.6566 C.ar      11 UNK        -0.0753 
     14 C14       -78.6386   29.8882  -70.9402 C.ar      11 UNK        -0.0933 
     15 C15       -76.1230   29.6202  -71.0722 C.3       11 UNK         0.0166 
     16 S16       -75.7072   27.9791  -71.7278 S.3       11 UNK        -0.2615 
     17 C17       -74.0223   27.7027  -71.0941 C.3       11 UNK        -0.0865 
     18 CA        -72.9248   28.5207  -71.8266 C.3       10 UNK         0.0862 
     19 C         -71.5150   28.2006  -71.2439 C.2       10 UNK         0.5551 
     20 N         -70.5423   27.7528  -72.0295 N.am      10 UNK        -0.7319 
     21 O         -71.2981   28.3689  -70.0463 O.2       10 UNK        -0.5018 
     22 N         -73.0218   28.4293  -73.2953 N.am      10 UNK        -0.4509 
     23 C         -72.4959   29.3349  -74.1309 C.2       10 UNK         0.4899 
     24 O         -71.9445   30.3700  -73.7513 O.2       10 UNK        -0.4839 
     25 CA        -72.5936   29.0335  -75.6395 C.3       9 UNK         0.0222 
     26 CB        -71.6505   29.9136  -76.4861 C.3       9 UNK        -0.1966 
     27 N         -72.4000   27.6187  -75.9860 N.am      9 UNK        -0.4218 
     28 C         -71.3595   26.8354  -75.6600 C.2       9 UNK         0.5020 
     29 O         -70.4257   27.1954  -74.9413 O.2       9 UNK        -0.5274 
     30 CA        -71.3427   25.4060  -76.2292 C.3       8 UNK         0.0270 
     31 CB        -71.8798   24.3904  -75.2076 C.3       8 UNK        -0.1976 
     32 N         -72.0726   25.2664  -77.4921 N.am      8 UNK        -0.4313 
     33 C         -71.6341   25.6966  -78.6810 C.2       8 UNK         0.5041 
     34 O         -70.5689   26.2946  -78.8378 O.2       8 UNK        -0.5577 
     35 CA        -72.5086   25.3953  -79.9135 C.3       7 UNK         0.0284 
     36 CB        -72.4217   23.9059  -80.3031 C.3       7 UNK        -0.1958 
     37 N         -73.9062   25.8426  -79.8169 N.am      7 UNK        -0.4454 
     38 C         -74.8638   25.4323  -78.9752 C.2       7 UNK         0.5089 
     39 O         -74.6962   24.5922  -78.0887 O.2       7 UNK        -0.5125 
     40 CA        -76.2498   26.0739  -79.1603 C.3       6 UNK         0.0408 
     41 CB        -77.2624   25.0349  -79.6672 C.3       6 UNK        -0.1791 
     42 N         -76.7418   26.6478  -77.9102 N.am      6 UNK        -0.4762 
     43 C         -76.1589   27.6521  -77.2400 C.2       6 UNK         0.5007 
     44 O         -75.1868   28.2785  -77.6617 O.2       6 UNK        -0.5032 
     45 CA        -76.7345   27.9659  -75.8439 C.3       5 UNK         0.0783 
     46 C46       -78.0189   28.8285  -75.9364 C.3       11 UNK        -0.0857 
     47 S47       -77.6272   30.6012  -76.1367 S.3       11 UNK        -0.2512 
     48 C48       -78.7958   31.4126  -74.9869 C.3       11 UNK         0.0225 
     49 N         -76.9515   26.7238  -75.0976 N.am      5 UNK        -0.4615 
     50 C         -75.9682   25.9261  -74.6552 C.2       4 UNK         0.5053 
     51 O         -74.7793   26.2452  -74.6797 O.2       4 UNK        -0.5105 
     52 CA        -76.3614   24.5427  -74.1077 C.3       4 UNK         0.0263 
     53 CB        -76.3462   24.5373  -72.5713 C.3       4 UNK        -0.1981 
     54 N         -77.6870   24.1307  -74.5766 N.am      4 UNK        -0.4224 
     55 C         -77.9135   23.3268  -75.6258 C.2       3 UNK         0.4895 
     56 O         -77.0251   22.7499  -76.2519 O.2       3 UNK        -0.5091 
     57 CA        -79.3781   23.1198  -76.0632 C.3       3 UNK         0.0250 
     58 CB        -79.9304   21.8091  -75.4795 C.3       3 UNK        -0.1996 
     59 N         -80.2759   24.2203  -75.7003 N.am      3 UNK        -0.4254 
     60 C         -80.1917   25.4707  -76.1759 C.2       2 UNK         0.5004 
     61 O         -79.3676   25.8267  -77.0170 O.2       2 UNK        -0.5226 
     62 CA        -81.1390   26.5188  -75.5607 C.3       2 UNK         0.0269 
     63 CB        -82.4269   26.6262  -76.3914 C.3       2 UNK        -0.1926 
     64 N         -81.4862   26.2909  -74.1497 N.am      2 UNK        -0.4687 
     65 C         -80.6119   26.1203  -73.1464 C.2       1 UNK         0.5165 
     66 O         -79.3900   26.0751  -73.3073 O.2       1 UNK        -0.5079 
     67 H67       -82.6222   23.3187  -68.9877 H         1 UNK         0.0900 
     68 H68       -83.1459   23.7436  -70.6148 H         1 UNK         0.0900 
     69 H69       -82.6526   25.0068  -69.4740 H         1 UNK         0.0900 
     70 H70       -79.5554   24.6616  -71.4963 H         1 UNK         0.2959 
     71 H71       -82.2535   25.7021  -71.8373 H         1 UNK         0.1079 
     72 H72       -81.2525   26.9462  -69.8086 H         1 UNK         0.0837 
     73 H73       -79.9728   27.4964  -70.8468 H         1 UNK         0.0837 
     74 H74       -81.7874   30.8923  -70.8408 H         1 UNK         0.0685 
     75 H75       -80.9644   29.8829  -69.6792 H         1 UNK         0.0685 
     76 H76       -80.8593   30.9552  -73.2727 H         1 UNK         0.1434 
     77 H77       -76.5777   30.7212  -73.5006 H         1 UNK         0.1329 
     78 H78       -78.6050   29.4719  -69.9427 H         1 UNK         0.1335 
     79 H79       -75.3450   30.3372  -71.3368 H         1 UNK         0.0680 
     80 H80       -76.1663   29.5829  -69.9826 H         1 UNK         0.0680 
     81 H81       -74.0164   27.9220  -70.0246 H         1 UNK         0.1032 
     82 H82       -73.8116   26.6355  -71.1829 H         1 UNK         0.1032 
     83 H83       -73.1004   29.5662  -71.5681 H         1 UNK         0.0461 
     84 H84       -69.6397   27.5572  -71.6276 H         1 UNK         0.3453 
     85 H85       -70.6835   27.6286  -73.0270 H         1 UNK         0.3453 
     86 H86       -73.4867   27.6116  -73.6759 H         1 UNK         0.2984 
     87 H87       -73.6150   29.2876  -75.9182 H         1 UNK         0.0554 
     88 H88       -71.7704   29.7109  -77.5504 H         1 UNK         0.0847 
     89 H89       -70.6042   29.7454  -76.2283 H         1 UNK         0.0847 
     90 H90       -71.8586   30.9736  -76.3352 H         1 UNK         0.0847 
     91 H91       -73.1476   27.2008  -76.5237 H         1 UNK         0.3141 
     92 H92       -70.2960   25.1576  -76.4186 H         1 UNK         0.0743 
     93 H93       -71.3918   24.5106  -74.2392 H         1 UNK         0.0784 
     94 H94       -72.9517   24.4986  -75.0496 H         1 UNK         0.0784 
     95 H95       -71.6963   23.3677  -75.5371 H         1 UNK         0.0784 
     96 H96       -72.9908   24.8238  -77.4676 H         1 UNK         0.3213 
     97 H97       -72.0797   25.9663  -80.7389 H         1 UNK         0.0855 
     98 H98       -72.8420   23.2544  -79.5365 H         1 UNK         0.0814 
     99 H99       -71.3842   23.6029  -80.4506 H         1 UNK         0.0814 
    100 H100      -72.9510   23.7092  -81.2354 H         1 UNK         0.0814 
    101 H101      -74.1563   26.5722  -80.4708 H         1 UNK         0.3105 
    102 H102      -76.1827   26.8785  -79.8955 H         1 UNK         0.0547 
    103 H103      -78.2418   25.4833  -79.8351 H         1 UNK         0.0837 
    104 H104      -76.9367   24.5989  -80.6124 H         1 UNK         0.0837 
    105 H105      -77.3880   24.2173  -78.9554 H         1 UNK         0.0837 
    106 H106      -77.5628   26.2074  -77.5019 H         1 UNK         0.3020 
    107 H107      -75.9779   28.5292  -75.2923 H         1 UNK         0.1245 
    108 H108      -78.6083   28.6999  -75.0281 H         1 UNK         0.0781 
    109 H109      -78.6669   28.5115  -76.7557 H         1 UNK         0.0781 
    110 H110      -78.5988   32.4853  -74.9871 H         1 UNK         0.0836 
    111 H111      -79.8037   31.2846  -75.3848 H         1 UNK         0.0836 
    112 H112      -77.9080   26.4234  -74.9774 H         1 UNK         0.3022 
    113 H113      -75.6068   23.8330  -74.4535 H         1 UNK         0.0747 
    114 H114      -76.5840   23.5501  -72.1752 H         1 UNK         0.0793 
    115 H115      -77.0621   25.2479  -72.1569 H         1 UNK         0.0793 
    116 H116      -75.3605   24.8103  -72.1928 H         1 UNK         0.0793 
    117 H117      -78.4730   24.5915  -74.1287 H         1 UNK         0.3047 
    118 H118      -79.3799   23.0380  -77.1525 H         1 UNK         0.0822 
    119 H119      -79.3003   20.9625  -75.7565 H         1 UNK         0.0807 
    120 H120      -80.9330   21.5988  -75.8525 H         1 UNK         0.0807 
    121 H121      -79.9748   21.8391  -74.3900 H         1 UNK         0.0807 
    122 H122      -80.9855   24.0214  -75.0103 H         1 UNK         0.2946 
    123 H123      -80.6270   27.4807  -75.6106 H         1 UNK         0.1144 
    124 H124      -82.1998   26.8189  -77.4412 H         1 UNK         0.0793 
    125 H125      -83.0568   27.4455  -76.0442 H         1 UNK         0.0793 
    126 H126      -83.0140   25.7079  -76.3481 H         1 UNK         0.0793 
    127 H127      -82.4717   26.3174  -73.9288 H         1 UNK         0.2896 
@<TRIPOS>BOND
     1    1    2 1    
     2    1   67 1    
     3    1   68 1    
     4    1   69 1    
     5    2    3 2    
     6    2    4 am   BACKBONE|DICT|INTERRES
     7    4    5 1    
     8    4   70 1    
     9    5    6 1    
    10    5   65 1    
    11    5   71 1    
    12    6    7 1    
    13    6   72 1    
    14    6   73 1    
    15    7    8 1    
    16    8    9 1    
    17    8   74 1    
    18    8   75 1    
    19    9   10 ar   
    20    9   14 ar   
    21   10   11 ar   
    22   10   76 1    
    23   11   12 ar   
    24   11   48 1    
    25   12   13 ar   
    26   12   77 1    
    27   13   14 ar   
    28   13   15 1    
    29   14   78 1    
    30   15   16 1    
    31   15   79 1    
    32   15   80 1    
    33   16   17 1    
    34   17   18 1    
    35   17   81 1    
    36   17   82 1    
    37   18   19 1    
    38   18   22 1    
    39   18   83 1    
    40   19   20 am   BACKBONE|DICT|INTERRES
    41   19   21 2    
    42   20   84 1    
    43   20   85 1    
    44   22   23 am   BACKBONE|DICT|INTERRES
    45   22   86 1    
    46   23   24 2    
    47   23   25 1    
    48   25   26 1    
    49   25   27 1    
    50   25   87 1    
    51   26   88 1    
    52   26   89 1    
    53   26   90 1    
    54   27   28 am   BACKBONE|DICT|INTERRES
    55   27   91 1    
    56   28   29 2    
    57   28   30 1    
    58   30   31 1    
    59   30   32 1    
    60   30   92 1    
    61   31   93 1    
    62   31   94 1    
    63   31   95 1    
    64   32   33 am   BACKBONE|DICT|INTERRES
    65   32   96 1    
    66   33   34 2    
    67   33   35 1    
    68   35   36 1    
    69   35   37 1    
    70   35   97 1    
    71   36   98 1    
    72   36   99 1    
    73   36  100 1    
    74   37   38 am   BACKBONE|DICT|INTERRES
    75   37  101 1    
    76   38   39 2    
    77   38   40 1    
    78   40   41 1    
    79   40   42 1    
    80   40  102 1    
    81   41  103 1    
    82   41  104 1    
    83   41  105 1    
    84   42   43 am   BACKBONE|DICT|INTERRES
    85   42  106 1    
    86   43   44 2    
    87   43   45 1    
    88   45   46 1    
    89   45   49 1    
    90   45  107 1    
    91   46   47 1    
    92   46  108 1    
    93   46  109 1    
    94   47   48 1    
    95   48  110 1    
    96   48  111 1    
    97   49   50 am   BACKBONE|DICT|INTERRES
    98   49  112 1    
    99   50   51 2    
   100   50   52 1    
   101   52   53 1    
   102   52   54 1    
   103   52  113 1    
   104   53  114 1    
   105   53  115 1    
   106   53  116 1    
   107   54   55 am   BACKBONE|DICT|INTERRES
   108   54  117 1    
   109   55   56 2    
   110   55   57 1    
   111   57   58 1    
   112   57   59 1    
   113   57  118 1    
   114   58  119 1    
   115   58  120 1    
   116   58  121 1    
   117   59   60 am   BACKBONE|DICT|INTERRES
   118   59  122 1    
   119   60   61 2    
   120   60   62 1    
   121   62   63 1    
   122   62   64 1    
   123   62  123 1    
   124   63  124 1    
   125   63  125 1    
   126   63  126 1    
   127   64   65 am   BACKBONE|DICT|INTERRES
   128   64  127 1    
   129   65   66 2    
@<TRIPOS>SUBSTRUCTURE
     1 UNK         1 GROUP             0       ****    0 ROOT    
