@<TRIPOS>MOLECULE
3R135
127   129    1
SMALL
USER_CHARGES


@<TRIPOS>ATOM
      1 CA        -80.6534   28.6114  -69.0035 C.3       0 UNK        -0.1998 
      2 C         -81.4360   27.5053  -69.6950 C.2       0 UNK         0.4909 
      3 O         -82.1739   26.7707  -69.0386 O.2       0 UNK        -0.5240 
      4 N         -81.2758   27.3774  -71.0182 N.am      1 UNK        -0.4739 
      5 CA        -81.9287   26.3646  -71.8597 C.3       1 UNK         0.0864 
      6 C6        -82.0242   26.8268  -73.3387 C.3       11 UNK        -0.0881 
      7 S7        -80.4128   27.2838  -74.0695 S.3       11 UNK        -0.2682 
      8 C8        -80.5472   29.0978  -74.1408 C.3       11 UNK         0.0289 
      9 C9        -79.1770   29.7540  -74.0709 C.ar      11 UNK        -0.0687 
     10 C10       -78.6299   30.4026  -75.1827 C.ar      11 UNK        -0.0823 
     11 C11       -77.3865   31.0384  -75.0912 C.ar      11 UNK        -0.0830 
     12 C12       -76.6881   30.9988  -73.8781 C.ar      11 UNK        -0.1021 
     13 C13       -77.2139   30.3440  -72.7607 C.ar      11 UNK        -0.0753 
     14 C14       -78.4707   29.7389  -72.8659 C.ar      11 UNK        -0.0933 
     15 C15       -76.4059   30.3606  -71.4609 C.3       11 UNK         0.0166 
     16 S16       -76.9340   29.1932  -70.1549 S.3       11 UNK        -0.2615 
     17 C17       -76.6106   27.5624  -70.9085 C.3       11 UNK        -0.0865 
     18 CA        -75.0950   27.2821  -71.1440 C.3       10 UNK         0.0862 
     19 C         -74.6356   25.9060  -70.5757 C.2       10 UNK         0.5551 
     20 N         -73.8610   25.1110  -71.3036 N.am      10 UNK        -0.7319 
     21 O         -74.9689   25.5602  -69.4452 O.2       10 UNK        -0.5018 
     22 N         -74.7497   27.4627  -72.5639 N.am      10 UNK        -0.4509 
     23 C         -73.6725   28.1017  -73.0289 C.2       10 UNK         0.4899 
     24 O         -72.8539   28.6796  -72.3114 O.2       10 UNK        -0.4839 
     25 CA        -73.4813   28.0651  -74.5580 C.3       9 UNK         0.0222 
     26 CB        -72.3997   29.0584  -75.0403 C.3       9 UNK        -0.1966 
     27 N         -73.2032   26.7078  -75.0584 N.am      9 UNK        -0.4218 
     28 C         -72.1624   25.9266  -74.7202 C.2       9 UNK         0.5020 
     29 O         -71.2910   26.2618  -73.9174 O.2       9 UNK        -0.5274 
     30 CA        -72.0480   24.5242  -75.3495 C.3       8 UNK         0.0270 
     31 CB        -72.2282   23.4315  -74.2812 C.3       8 UNK        -0.1976 
     32 N         -72.9643   24.2577  -76.4613 N.am      8 UNK        -0.4313 
     33 C         -72.7724   24.6559  -77.7255 C.2       8 UNK         0.5041 
     34 O         -71.8422   25.3851  -78.0734 O.2       8 UNK        -0.5577 
     35 CA        -73.7578   24.1395  -78.7902 C.3       7 UNK         0.0284 
     36 CB        -74.8730   23.2243  -78.2392 C.3       7 UNK        -0.1958 
     37 N         -74.3739   25.2901  -79.4379 N.am      7 UNK        -0.4454 
     38 C         -74.3078   25.6036  -80.7381 C.2       7 UNK         0.5089 
     39 O         -73.7379   24.9110  -81.5823 O.2       7 UNK        -0.5125 
     40 CA        -75.0114   26.9029  -81.1885 C.3       6 UNK         0.0408 
     41 CB        -76.2959   26.5735  -81.9667 C.3       6 UNK        -0.1791 
     42 N         -75.3490   27.7935  -80.0739 N.am      6 UNK        -0.4762 
     43 C         -74.4598   28.5135  -79.3738 C.2       6 UNK         0.5007 
     44 O         -73.2798   28.6357  -79.7022 O.2       6 UNK        -0.5032 
     45 CA        -74.9485   29.1692  -78.0633 C.3       5 UNK         0.0783 
     46 C46       -75.0610   30.7035  -78.2113 C.3       11 UNK        -0.0857 
     47 S47       -75.0679   31.5342  -76.5891 S.3       11 UNK        -0.2512 
     48 C48       -76.8416   31.8337  -76.2756 C.3       11 UNK         0.0225 
     49 N         -76.1892   28.5791  -77.5391 N.am      5 UNK        -0.4615 
     50 C         -76.3113   27.3257  -77.0871 C.2       4 UNK         0.5053 
     51 O         -75.3728   26.5276  -77.0422 O.2       4 UNK        -0.5105 
     52 CA        -77.7300   26.8848  -76.6951 C.3       4 UNK         0.0263 
     53 CB        -78.6336   26.7937  -77.9373 C.3       4 UNK        -0.1981 
     54 N         -77.7572   25.5931  -76.0063 N.am      4 UNK        -0.4224 
     55 C         -77.2919   25.3874  -74.7704 C.2       3 UNK         0.4895 
     56 O         -76.7531   26.2538  -74.0800 O.2       3 UNK        -0.5091 
     57 CA        -77.4642   23.9836  -74.1908 C.3       3 UNK         0.0250 
     58 CB        -76.0979   23.2977  -74.0123 C.3       3 UNK        -0.1996 
     59 N         -78.1453   24.1354  -72.9108 N.am      3 UNK        -0.4254 
     60 C         -78.6865   23.1570  -72.1767 C.2       2 UNK         0.5004 
     61 O         -78.6551   21.9641  -72.4810 O.2       2 UNK        -0.5226 
     62 CA        -79.4030   23.5906  -70.8873 C.3       2 UNK         0.0269 
     63 CB        -78.3997   23.7350  -69.7314 C.3       2 UNK        -0.1926 
     64 N         -80.1450   24.8445  -71.0536 N.am      2 UNK        -0.4687 
     65 C         -81.2952   24.9583  -71.7365 C.2       1 UNK         0.5165 
     66 O         -81.8636   23.9992  -72.2612 O.2       1 UNK        -0.5079 
     67 H67       -79.9074   28.1825  -68.3348 H         1 UNK         0.0900 
     68 H68       -81.3246   29.2333  -68.4119 H         1 UNK         0.0900 
     69 H69       -80.1391   29.2556  -69.7164 H         1 UNK         0.0900 
     70 H70       -80.6552   28.0012  -71.5119 H         1 UNK         0.2959 
     71 H71       -82.9531   26.2492  -71.4975 H         1 UNK         0.1079 
     72 H72       -82.4743   26.0491  -73.9591 H         1 UNK         0.0837 
     73 H73       -82.7077   27.6741  -73.4108 H         1 UNK         0.0837 
     74 H74       -81.1510   29.4633  -73.3090 H         1 UNK         0.0685 
     75 H75       -81.0738   29.3812  -75.0533 H         1 UNK         0.0685 
     76 H76       -79.1882   30.4372  -76.1082 H         1 UNK         0.1434 
     77 H77       -75.7327   31.4991  -73.7961 H         1 UNK         0.1329 
     78 H78       -78.9131   29.2513  -72.0114 H         1 UNK         0.1335 
     79 H79       -75.3534   30.1819  -71.6820 H         1 UNK         0.0680 
     80 H80       -76.4593   31.3680  -71.0464 H         1 UNK         0.0680 
     81 H81       -77.0611   26.8312  -70.2363 H         1 UNK         0.1032 
     82 H82       -77.1807   27.4744  -71.8332 H         1 UNK         0.1032 
     83 H83       -74.5243   28.0007  -70.5537 H         1 UNK         0.0461 
     84 H84       -73.5582   24.2302  -70.9200 H         1 UNK         0.3453 
     85 H85       -73.5372   25.4165  -72.2061 H         1 UNK         0.3453 
     86 H86       -75.3890   27.0169  -73.2223 H         1 UNK         0.2984 
     87 H87       -74.4314   28.3729  -74.9958 H         1 UNK         0.0554 
     88 H88       -72.2407   28.9964  -76.1159 H         1 UNK         0.0847 
     89 H89       -71.4373   28.8785  -74.5601 H         1 UNK         0.0847 
     90 H90       -72.6887   30.0846  -74.8102 H         1 UNK         0.0847 
     91 H91       -73.8789   26.3496  -75.7280 H         1 UNK         0.3141 
     92 H92       -71.0275   24.4409  -75.7302 H         1 UNK         0.0743 
     93 H93       -71.5102   23.5557  -73.4691 H         1 UNK         0.0784 
     94 H94       -73.2222   23.4542  -73.8383 H         1 UNK         0.0784 
     95 H95       -72.0681   22.4370  -74.6982 H         1 UNK         0.0784 
     96 H96       -73.7614   23.6720  -76.2643 H         1 UNK         0.3213 
     97 H97       -73.1683   23.5658  -79.5084 H         1 UNK         0.0855 
     98 H98       -75.5093   23.7400  -77.5186 H         1 UNK         0.0814 
     99 H99       -74.4615   22.3355  -77.7590 H         1 UNK         0.0814 
    100 H100      -75.5171   22.8740  -79.0460 H         1 UNK         0.0814 
    101 H101      -74.8088   25.9465  -78.7970 H         1 UNK         0.3105 
    102 H102      -74.3305   27.4301  -81.8600 H         1 UNK         0.0547 
    103 H103      -77.0192   26.0414  -81.3476 H         1 UNK         0.0837 
    104 H104      -76.7749   27.4767  -82.3448 H         1 UNK         0.0837 
    105 H105      -76.0783   25.9407  -82.8283 H         1 UNK         0.0837 
    106 H106      -76.3038   27.7694  -79.7477 H         1 UNK         0.3020 
    107 H107      -74.1634   28.9570  -77.3383 H         1 UNK         0.1245 
    108 H108      -75.9362   30.9844  -78.7992 H         1 UNK         0.0781 
    109 H109      -74.2003   31.1024  -78.7526 H         1 UNK         0.0781 
    110 H110      -76.9746   32.8947  -76.0608 H         1 UNK         0.0836 
    111 H111      -77.4241   31.6364  -77.1760 H         1 UNK         0.0836 
    112 H112      -76.9985   29.1810  -77.5339 H         1 UNK         0.3022 
    113 H113      -78.1348   27.6376  -76.0166 H         1 UNK         0.0747 
    114 H114      -78.7069   27.7523  -78.4521 H         1 UNK         0.0793 
    115 H115      -79.6490   26.5058  -77.6634 H         1 UNK         0.0793 
    116 H116      -78.2606   26.0624  -78.6559 H         1 UNK         0.0793 
    117 H117      -78.1639   24.8212  -76.5130 H         1 UNK         0.3047 
    118 H118      -78.0904   23.3843  -74.8550 H         1 UNK         0.0822 
    119 H119      -75.5576   23.2524  -74.9574 H         1 UNK         0.0807 
    120 H120      -76.2042   22.2742  -73.6533 H         1 UNK         0.0807 
    121 H121      -75.4771   23.8384  -73.2981 H         1 UNK         0.0807 
    122 H122      -78.2404   25.0925  -72.5996 H         1 UNK         0.2946 
    123 H123      -80.1136   22.8031  -70.6248 H         1 UNK         0.1144 
    124 H124      -77.6471   24.4962  -69.9368 H         1 UNK         0.0793 
    125 H125      -77.8702   22.7970  -69.5584 H         1 UNK         0.0793 
    126 H126      -78.9008   23.9989  -68.7999 H         1 UNK         0.0793 
    127 H127      -79.7602   25.6753  -70.6299 H         1 UNK         0.2896 
@<TRIPOS>BOND
     1    1    2 1    
     2    1   67 1    
     3    1   68 1    
     4    1   69 1    
     5    2    3 2    
     6    2    4 am   BACKBONE|DICT|INTERRES
     7    4    5 1    
     8    4   70 1    
     9    5    6 1    
    10    5   65 1    
    11    5   71 1    
    12    6    7 1    
    13    6   72 1    
    14    6   73 1    
    15    7    8 1    
    16    8    9 1    
    17    8   74 1    
    18    8   75 1    
    19    9   10 ar   
    20    9   14 ar   
    21   10   11 ar   
    22   10   76 1    
    23   11   12 ar   
    24   11   48 1    
    25   12   13 ar   
    26   12   77 1    
    27   13   14 ar   
    28   13   15 1    
    29   14   78 1    
    30   15   16 1    
    31   15   79 1    
    32   15   80 1    
    33   16   17 1    
    34   17   18 1    
    35   17   81 1    
    36   17   82 1    
    37   18   19 1    
    38   18   22 1    
    39   18   83 1    
    40   19   20 am   BACKBONE|DICT|INTERRES
    41   19   21 2    
    42   20   84 1    
    43   20   85 1    
    44   22   23 am   BACKBONE|DICT|INTERRES
    45   22   86 1    
    46   23   24 2    
    47   23   25 1    
    48   25   26 1    
    49   25   27 1    
    50   25   87 1    
    51   26   88 1    
    52   26   89 1    
    53   26   90 1    
    54   27   28 am   BACKBONE|DICT|INTERRES
    55   27   91 1    
    56   28   29 2    
    57   28   30 1    
    58   30   31 1    
    59   30   32 1    
    60   30   92 1    
    61   31   93 1    
    62   31   94 1    
    63   31   95 1    
    64   32   33 am   BACKBONE|DICT|INTERRES
    65   32   96 1    
    66   33   34 2    
    67   33   35 1    
    68   35   36 1    
    69   35   37 1    
    70   35   97 1    
    71   36   98 1    
    72   36   99 1    
    73   36  100 1    
    74   37   38 am   BACKBONE|DICT|INTERRES
    75   37  101 1    
    76   38   39 2    
    77   38   40 1    
    78   40   41 1    
    79   40   42 1    
    80   40  102 1    
    81   41  103 1    
    82   41  104 1    
    83   41  105 1    
    84   42   43 am   BACKBONE|DICT|INTERRES
    85   42  106 1    
    86   43   44 2    
    87   43   45 1    
    88   45   46 1    
    89   45   49 1    
    90   45  107 1    
    91   46   47 1    
    92   46  108 1    
    93   46  109 1    
    94   47   48 1    
    95   48  110 1    
    96   48  111 1    
    97   49   50 am   BACKBONE|DICT|INTERRES
    98   49  112 1    
    99   50   51 2    
   100   50   52 1    
   101   52   53 1    
   102   52   54 1    
   103   52  113 1    
   104   53  114 1    
   105   53  115 1    
   106   53  116 1    
   107   54   55 am   BACKBONE|DICT|INTERRES
   108   54  117 1    
   109   55   56 2    
   110   55   57 1    
   111   57   58 1    
   112   57   59 1    
   113   57  118 1    
   114   58  119 1    
   115   58  120 1    
   116   58  121 1    
   117   59   60 am   BACKBONE|DICT|INTERRES
   118   59  122 1    
   119   60   61 2    
   120   60   62 1    
   121   62   63 1    
   122   62   64 1    
   123   62  123 1    
   124   63  124 1    
   125   63  125 1    
   126   63  126 1    
   127   64   65 am   BACKBONE|DICT|INTERRES
   128   64  127 1    
   129   65   66 2    
@<TRIPOS>SUBSTRUCTURE
     1 UNK         1 GROUP             0       ****    0 ROOT    
