@<TRIPOS>MOLECULE
3R135
127   129    1
SMALL
USER_CHARGES


@<TRIPOS>ATOM
      1 CA        -80.5460   21.4947  -72.6098 C.3       0 UNK        -0.1998 
      2 C         -81.2881   22.7747  -72.9612 C.2       0 UNK         0.4909 
      3 O         -81.9533   22.8321  -73.9961 O.2       0 UNK        -0.5240 
      4 N         -81.1660   23.8063  -72.1159 N.am      1 UNK        -0.4739 
      5 CA        -81.7442   25.1437  -72.2925 C.3       1 UNK         0.0864 
      6 C6        -81.4997   26.0572  -71.0591 C.3       11 UNK        -0.0881 
      7 S7        -79.8001   25.9993  -70.3758 S.3       11 UNK        -0.2682 
      8 C8        -79.5851   27.6875  -69.7331 C.3       11 UNK         0.0289 
      9 C9        -78.7172   28.5473  -70.6423 C.ar      11 UNK        -0.0687 
     10 C10       -79.2786   29.2238  -71.7300 C.ar      11 UNK        -0.0823 
     11 C11       -78.4956   30.0758  -72.5176 C.ar      11 UNK        -0.0830 
     12 C12       -77.1419   30.2449  -72.2110 C.ar      11 UNK        -0.1021 
     13 C13       -76.5661   29.5628  -71.1366 C.ar      11 UNK        -0.0753 
     14 C14       -77.3566   28.7100  -70.3601 C.ar      11 UNK        -0.0933 
     15 C15       -75.1042   29.7901  -70.7859 C.3       11 UNK         0.0166 
     16 S16       -73.9913   28.7587  -71.7891 S.3       11 UNK        -0.2615 
     17 C17       -72.3792   29.3004  -71.1245 C.3       11 UNK        -0.0865 
     18 CA        -71.6528   30.2984  -72.0634 C.3       10 UNK         0.0862 
     19 C         -70.4609   30.9674  -71.3241 C.2       10 UNK         0.5551 
     20 N         -70.6782   32.1266  -70.7185 N.am      10 UNK        -0.7319 
     21 O         -69.3602   30.4227  -71.2577 O.2       10 UNK        -0.5018 
     22 N         -71.2326   29.6440  -73.3105 N.am      10 UNK        -0.4509 
     23 C         -70.7349   30.2697  -74.3859 C.2       10 UNK         0.4899 
     24 O         -70.6865   31.4950  -74.5011 O.2       10 UNK        -0.4839 
     25 CA        -70.1750   29.3922  -75.5240 C.3       9 UNK         0.0222 
     26 CB        -68.6430   29.5162  -75.5886 C.3       9 UNK        -0.1966 
     27 N         -70.5310   27.9751  -75.3940 N.am      9 UNK        -0.4218 
     28 C         -71.7158   27.4568  -75.7404 C.2       9 UNK         0.5020 
     29 O         -72.6217   28.1066  -76.2645 O.2       9 UNK        -0.5274 
     30 CA        -71.9240   25.9785  -75.3852 C.3       8 UNK         0.0270 
     31 CB        -72.3319   25.8365  -73.9082 C.3       8 UNK        -0.1976 
     32 N         -72.9589   25.3721  -76.2224 N.am      8 UNK        -0.4313 
     33 C         -72.7233   24.7548  -77.3858 C.2       8 UNK         0.5041 
     34 O         -71.6042   24.6543  -77.8927 O.2       8 UNK        -0.5577 
     35 CA        -73.9222   24.0961  -78.0870 C.3       7 UNK         0.0284 
     36 CB        -74.2952   22.7782  -77.3881 C.3       7 UNK        -0.1958 
     37 N         -75.1038   24.9562  -78.1779 N.am      7 UNK        -0.4454 
     38 C         -75.2144   26.0018  -79.0095 C.2       7 UNK         0.5089 
     39 O         -74.3113   26.3852  -79.7540 O.2       7 UNK        -0.5125 
     40 CA        -76.5740   26.7219  -79.0498 C.3       6 UNK         0.0408 
     41 CB        -77.5801   25.9380  -79.9077 C.3       6 UNK        -0.1791 
     42 N         -77.1364   26.9404  -77.7183 N.am      6 UNK        -0.4762 
     43 C         -76.6836   27.8529  -76.8457 C.2       6 UNK         0.5007 
     44 O         -75.7945   28.6631  -77.1063 O.2       6 UNK        -0.5032 
     45 CA        -77.3351   27.8550  -75.4455 C.3       5 UNK         0.0783 
     46 C46       -78.6402   28.6934  -75.4456 C.3       11 UNK        -0.0857 
     47 S47       -78.3250   30.4797  -75.2755 S.3       11 UNK        -0.2512 
     48 C48       -79.1204   30.8438  -73.6761 C.3       11 UNK         0.0225 
     49 N         -77.5767   26.5008  -74.9373 N.am      5 UNK        -0.4615 
     50 C         -76.6571   25.5397  -74.7759 C.2       4 UNK         0.5053 
     51 O         -75.4566   25.6880  -74.9895 O.2       4 UNK        -0.5105 
     52 CA        -77.1765   24.1497  -74.3789 C.3       4 UNK         0.0263 
     53 CB        -77.4072   24.0535  -72.8633 C.3       4 UNK        -0.1981 
     54 N         -78.4036   23.8082  -75.1015 N.am      4 UNK        -0.4224 
     55 C         -78.4541   23.5587  -76.4185 C.2       3 UNK         0.4895 
     56 O         -77.4630   23.5274  -77.1467 O.2       3 UNK        -0.5091 
     57 CA        -79.8465   23.3621  -77.0377 C.3       3 UNK         0.0250 
     58 CB        -80.3142   21.9064  -76.8855 C.3       3 UNK        -0.1996 
     59 N         -80.8382   24.2751  -76.4630 N.am      3 UNK        -0.4254 
     60 C         -80.8485   25.5969  -76.6970 C.2       2 UNK         0.5004 
     61 O         -80.0611   26.1579  -77.4590 O.2       2 UNK        -0.5226 
     62 CA        -81.8747   26.4477  -75.9248 C.3       2 UNK         0.0269 
     63 CB        -83.1799   26.5729  -76.7260 C.3       2 UNK        -0.1926 
     64 N         -82.1736   25.9439  -74.5795 N.am      2 UNK        -0.4687 
     65 C         -81.2643   25.7910  -73.6065 C.2       1 UNK         0.5165 
     66 O         -80.0779   26.0852  -73.7414 O.2       1 UNK        -0.5079 
     67 H67       -81.2400   20.6552  -72.5816 H         1 UNK         0.0900 
     68 H68       -79.7846   21.2831  -73.3599 H         1 UNK         0.0900 
     69 H69       -80.0561   21.5619  -71.6385 H         1 UNK         0.0900 
     70 H70       -80.5773   23.7138  -71.2996 H         1 UNK         0.2959 
     71 H71       -82.8243   25.0050  -72.3754 H         1 UNK         0.1079 
     72 H72       -82.1729   25.7538  -70.2558 H         1 UNK         0.0837 
     73 H73       -81.7737   27.0885  -71.2891 H         1 UNK         0.0837 
     74 H74       -80.5539   28.1638  -69.5764 H         1 UNK         0.0685 
     75 H75       -79.1287   27.6194  -68.7444 H         1 UNK         0.0685 
     76 H76       -80.3296   29.0983  -71.9500 H         1 UNK         0.1434 
     77 H77       -76.5357   30.9117  -72.8093 H         1 UNK         0.1329 
     78 H78       -76.9177   28.1916  -69.5186 H         1 UNK         0.1335 
     79 H79       -74.9368   29.5788  -69.7284 H         1 UNK         0.0680 
     80 H80       -74.8506   30.8412  -70.9336 H         1 UNK         0.0680 
     81 H81       -71.7599   28.4183  -70.9515 H         1 UNK         0.1032 
     82 H82       -72.5366   29.7425  -70.1385 H         1 UNK         0.1032 
     83 H83       -72.3593   31.0857  -72.3352 H         1 UNK         0.0461 
     84 H84       -71.5790   32.5774  -70.7614 H         1 UNK         0.3453 
     85 H85       -69.9216   32.5682  -70.2197 H         1 UNK         0.3453 
     86 H86       -71.2372   28.6367  -73.3037 H         1 UNK         0.2984 
     87 H87       -70.5843   29.7734  -76.4620 H         1 UNK         0.0554 
     88 H88       -68.3409   30.5547  -75.7317 H         1 UNK         0.0847 
     89 H89       -68.2319   28.9454  -76.4215 H         1 UNK         0.0847 
     90 H90       -68.1691   29.1645  -74.6712 H         1 UNK         0.0847 
     91 H91       -69.8387   27.3715  -74.9724 H         1 UNK         0.3141 
     92 H92       -70.9818   25.4457  -75.5323 H         1 UNK         0.0743 
     93 H93       -73.2321   26.4096  -73.6823 H         1 UNK         0.0784 
     94 H94       -72.5270   24.7959  -73.6486 H         1 UNK         0.0784 
     95 H95       -71.5446   26.1925  -73.2430 H         1 UNK         0.0784 
     96 H96       -73.9185   25.4742  -75.8907 H         1 UNK         0.3213 
     97 H97       -73.6099   23.8521  -79.1049 H         1 UNK         0.0855 
     98 H98       -74.6600   22.9479  -76.3746 H         1 UNK         0.0814 
     99 H99       -73.4329   22.1137  -77.3189 H         1 UNK         0.0814 
    100 H100      -75.0715   22.2448  -77.9370 H         1 UNK         0.0814 
    101 H101      -75.9168   24.6731  -77.6386 H         1 UNK         0.3105 
    102 H102      -76.4229   27.6958  -79.5203 H         1 UNK         0.0547 
    103 H103      -77.1959   25.7848  -80.9170 H         1 UNK         0.0837 
    104 H104      -77.7939   24.9549  -79.4872 H         1 UNK         0.0837 
    105 H105      -78.5254   26.4735  -79.9977 H         1 UNK         0.0837 
    106 H106      -77.9263   26.3633  -77.4509 H         1 UNK         0.3020 
    107 H107      -76.6208   28.3096  -74.7546 H         1 UNK         0.1245 
    108 H108      -79.2288   28.5240  -76.3490 H         1 UNK         0.0781 
    109 H109      -79.2847   28.3867  -74.6222 H         1 UNK         0.0781 
    110 H110      -80.1878   30.6316  -73.7562 H         1 UNK         0.0836 
    111 H111      -79.0360   31.9129  -73.4769 H         1 UNK         0.0836 
    112 H112      -78.5319   26.2968  -74.6494 H         1 UNK         0.3022 
    113 H113      -76.4118   23.4183  -74.6484 H         1 UNK         0.0747 
    114 H114      -77.7295   23.0542  -72.5714 H         1 UNK         0.0793 
    115 H115      -76.4883   24.2709  -72.3173 H         1 UNK         0.0793 
    116 H116      -78.1594   24.7635  -72.5220 H         1 UNK         0.0793 
    117 H117      -79.2714   23.8964  -74.5935 H         1 UNK         0.3047 
    118 H118      -79.7659   23.5781  -78.1055 H         1 UNK         0.0822 
    119 H119      -81.2847   21.7505  -77.3567 H         1 UNK         0.0807 
    120 H120      -80.3984   21.6109  -75.8400 H         1 UNK         0.0807 
    121 H121      -79.6100   21.2216  -77.3602 H         1 UNK         0.0807 
    122 H122      -81.4900   23.8865  -75.7892 H         1 UNK         0.2946 
    123 H123      -81.4463   27.4459  -75.8139 H         1 UNK         0.1144 
    124 H124      -82.9875   26.9672  -77.7250 H         1 UNK         0.0793 
    125 H125      -83.8802   27.2534  -76.2413 H         1 UNK         0.0793 
    126 H126      -83.6749   25.6084  -76.8459 H         1 UNK         0.0793 
    127 H127      -83.1230   25.6418  -74.4125 H         1 UNK         0.2896 
@<TRIPOS>BOND
     1    1    2 1    
     2    1   67 1    
     3    1   68 1    
     4    1   69 1    
     5    2    3 2    
     6    2    4 am   BACKBONE|DICT|INTERRES
     7    4    5 1    
     8    4   70 1    
     9    5    6 1    
    10    5   65 1    
    11    5   71 1    
    12    6    7 1    
    13    6   72 1    
    14    6   73 1    
    15    7    8 1    
    16    8    9 1    
    17    8   74 1    
    18    8   75 1    
    19    9   10 ar   
    20    9   14 ar   
    21   10   11 ar   
    22   10   76 1    
    23   11   12 ar   
    24   11   48 1    
    25   12   13 ar   
    26   12   77 1    
    27   13   14 ar   
    28   13   15 1    
    29   14   78 1    
    30   15   16 1    
    31   15   79 1    
    32   15   80 1    
    33   16   17 1    
    34   17   18 1    
    35   17   81 1    
    36   17   82 1    
    37   18   19 1    
    38   18   22 1    
    39   18   83 1    
    40   19   20 am   BACKBONE|DICT|INTERRES
    41   19   21 2    
    42   20   84 1    
    43   20   85 1    
    44   22   23 am   BACKBONE|DICT|INTERRES
    45   22   86 1    
    46   23   24 2    
    47   23   25 1    
    48   25   26 1    
    49   25   27 1    
    50   25   87 1    
    51   26   88 1    
    52   26   89 1    
    53   26   90 1    
    54   27   28 am   BACKBONE|DICT|INTERRES
    55   27   91 1    
    56   28   29 2    
    57   28   30 1    
    58   30   31 1    
    59   30   32 1    
    60   30   92 1    
    61   31   93 1    
    62   31   94 1    
    63   31   95 1    
    64   32   33 am   BACKBONE|DICT|INTERRES
    65   32   96 1    
    66   33   34 2    
    67   33   35 1    
    68   35   36 1    
    69   35   37 1    
    70   35   97 1    
    71   36   98 1    
    72   36   99 1    
    73   36  100 1    
    74   37   38 am   BACKBONE|DICT|INTERRES
    75   37  101 1    
    76   38   39 2    
    77   38   40 1    
    78   40   41 1    
    79   40   42 1    
    80   40  102 1    
    81   41  103 1    
    82   41  104 1    
    83   41  105 1    
    84   42   43 am   BACKBONE|DICT|INTERRES
    85   42  106 1    
    86   43   44 2    
    87   43   45 1    
    88   45   46 1    
    89   45   49 1    
    90   45  107 1    
    91   46   47 1    
    92   46  108 1    
    93   46  109 1    
    94   47   48 1    
    95   48  110 1    
    96   48  111 1    
    97   49   50 am   BACKBONE|DICT|INTERRES
    98   49  112 1    
    99   50   51 2    
   100   50   52 1    
   101   52   53 1    
   102   52   54 1    
   103   52  113 1    
   104   53  114 1    
   105   53  115 1    
   106   53  116 1    
   107   54   55 am   BACKBONE|DICT|INTERRES
   108   54  117 1    
   109   55   56 2    
   110   55   57 1    
   111   57   58 1    
   112   57   59 1    
   113   57  118 1    
   114   58  119 1    
   115   58  120 1    
   116   58  121 1    
   117   59   60 am   BACKBONE|DICT|INTERRES
   118   59  122 1    
   119   60   61 2    
   120   60   62 1    
   121   62   63 1    
   122   62   64 1    
   123   62  123 1    
   124   63  124 1    
   125   63  125 1    
   126   63  126 1    
   127   64   65 am   BACKBONE|DICT|INTERRES
   128   64  127 1    
   129   65   66 2    
@<TRIPOS>SUBSTRUCTURE
     1 UNK         1 GROUP             0       ****    0 ROOT    
