@<TRIPOS>MOLECULE
3R135
127   129    1
SMALL
USER_CHARGES


@<TRIPOS>ATOM
      1 CA        -81.7773   23.3887  -71.5315 C.3       0 UNK        -0.1998 
      2 C         -82.1000   24.3812  -72.6375 C.2       0 UNK         0.4909 
      3 O         -82.6383   23.9792  -73.6687 O.2       0 UNK        -0.5240 
      4 N         -81.7624   25.6622  -72.4220 N.am      1 UNK        -0.4739 
      5 CA        -81.9651   26.8290  -73.2953 C.3       1 UNK         0.0864 
      6 C6        -81.1591   28.0520  -72.7852 C.3       11 UNK        -0.0881 
      7 S7        -81.4034   28.5069  -71.0324 S.3       11 UNK        -0.2682 
      8 C8        -79.7742   28.1380  -70.2648 C.3       11 UNK         0.0289 
      9 C9        -78.5339   28.6374  -71.0173 C.ar      11 UNK        -0.0687 
     10 C10       -78.5772   29.7406  -71.8817 C.ar      11 UNK        -0.0823 
     11 C11       -77.4600   30.0990  -72.6411 C.ar      11 UNK        -0.0830 
     12 C12       -76.2609   29.4096  -72.4575 C.ar      11 UNK        -0.1021 
     13 C13       -76.1952   28.3090  -71.6030 C.ar      11 UNK        -0.0753 
     14 C14       -77.3299   27.9358  -70.8763 C.ar      11 UNK        -0.0933 
     15 C15       -74.9166   27.4879  -71.5416 C.3       11 UNK         0.0166 
     16 S16       -73.6505   28.2983  -70.5236 S.3       11 UNK        -0.2615 
     17 C17       -72.1267   27.5397  -71.1880 C.3       11 UNK        -0.0865 
     18 CA        -71.3436   28.5139  -72.1126 C.3       10 UNK         0.0862 
     19 C         -69.8774   28.0588  -72.3754 C.2       10 UNK         0.5551 
     20 N         -69.3053   28.2984  -73.5500 N.am      10 UNK        -0.7319 
     21 O         -69.2293   27.5041  -71.4907 O.2       10 UNK        -0.5018 
     22 N         -72.0730   28.7837  -73.3625 N.am      10 UNK        -0.4509 
     23 C         -72.5617   29.9743  -73.7342 C.2       10 UNK         0.4899 
     24 O         -72.5390   30.9758  -73.0169 O.2       10 UNK        -0.4839 
     25 CA        -73.1829   30.0713  -75.1466 C.3       9 UNK         0.0222 
     26 CB        -73.1772   31.5101  -75.7025 C.3       9 UNK        -0.1966 
     27 N         -72.6129   29.1424  -76.1299 N.am      9 UNK        -0.4218 
     28 C         -71.3184   29.0058  -76.4578 C.2       9 UNK         0.5020 
     29 O         -70.4174   29.7007  -75.9828 O.2       9 UNK        -0.5274 
     30 CA        -70.9642   27.8685  -77.4390 C.3       8 UNK         0.0270 
     31 CB        -69.4678   27.4944  -77.3882 C.3       8 UNK        -0.1976 
     32 N         -71.7785   26.6552  -77.2824 N.am      8 UNK        -0.4313 
     33 C         -72.0238   25.9576  -76.1628 C.2       8 UNK         0.5041 
     34 O         -71.6683   26.3100  -75.0358 O.2       8 UNK        -0.5577 
     35 CA        -72.8440   24.6672  -76.3496 C.3       7 UNK         0.0284 
     36 CB        -72.9607   23.8448  -75.0525 C.3       7 UNK        -0.1958 
     37 N         -74.1830   24.9758  -76.8586 N.am      7 UNK        -0.4454 
     38 C         -74.4705   25.2351  -78.1447 C.2       7 UNK         0.5089 
     39 O         -73.6325   25.1707  -79.0455 O.2       7 UNK        -0.5125 
     40 CA        -75.9024   25.6902  -78.4931 C.3       6 UNK         0.0408 
     41 CB        -76.7429   24.4927  -78.9636 C.3       6 UNK        -0.1791 
     42 N         -76.5984   26.3545  -77.3905 N.am      6 UNK        -0.4762 
     43 C         -76.1919   27.4649  -76.7555 C.2       6 UNK         0.5007 
     44 O         -75.2195   28.1339  -77.1082 O.2       6 UNK        -0.5032 
     45 CA        -76.9405   27.8217  -75.4525 C.3       5 UNK         0.0783 
     46 C46       -77.8986   29.0359  -75.6054 C.3       11 UNK        -0.0857 
     47 S47       -77.0342   30.6321  -75.3672 S.3       11 UNK        -0.2512 
     48 C48       -77.5709   31.1866  -73.7042 C.3       11 UNK         0.0225 
     49 N         -77.6116   26.6560  -74.8590 N.am      5 UNK        -0.4615 
     50 C         -76.9657   25.6096  -74.3246 C.2       4 UNK         0.5053 
     51 O         -75.7407   25.5120  -74.3106 O.2       4 UNK        -0.5105 
     52 CA        -77.8085   24.4708  -73.7422 C.3       4 UNK         0.0263 
     53 CB        -78.3455   24.8614  -72.3578 C.3       4 UNK        -0.1981 
     54 N         -78.9183   24.0928  -74.6227 N.am      4 UNK        -0.4224 
     55 C         -78.8954   23.0424  -75.4569 C.2       3 UNK         0.4895 
     56 O         -77.8995   22.3413  -75.6378 O.2       3 UNK        -0.5091 
     57 CA        -80.1954   22.6716  -76.1961 C.3       3 UNK         0.0250 
     58 CB        -80.8527   21.4532  -75.5264 C.3       3 UNK        -0.1996 
     59 N         -81.1694   23.7633  -76.2397 N.am      3 UNK        -0.4254 
     60 C         -81.2340   24.6815  -77.2144 C.2       2 UNK         0.5004 
     61 O         -80.5152   24.6711  -78.2140 O.2       2 UNK        -0.5226 
     62 CA        -82.2478   25.8306  -77.0302 C.3       2 UNK         0.0269 
     63 CB        -83.5791   25.4872  -77.7172 C.3       2 UNK        -0.1926 
     64 N         -82.5044   26.1963  -75.6295 N.am      2 UNK        -0.4687 
     65 C         -81.5528   26.5566  -74.7581 C.2       1 UNK         0.5165 
     66 O         -80.3604   26.6239  -75.0608 O.2       1 UNK        -0.5079 
     67 H67       -82.6911   22.9092  -71.1819 H         1 UNK         0.0900 
     68 H68       -81.1092   22.6142  -71.9072 H         1 UNK         0.0900 
     69 H69       -81.2976   23.8674  -70.6781 H         1 UNK         0.0900 
     70 H70       -81.3462   25.8975  -71.5328 H         1 UNK         0.2959 
     71 H71       -83.0276   27.0780  -73.2733 H         1 UNK         0.1079 
     72 H72       -80.0971   27.8737  -72.9450 H         1 UNK         0.0837 
     73 H73       -81.4010   28.9331  -73.3831 H         1 UNK         0.0837 
     74 H74       -79.7627   28.5640  -69.2609 H         1 UNK         0.0685 
     75 H75       -79.7084   27.0564  -70.1378 H         1 UNK         0.0685 
     76 H76       -79.5007   30.2868  -72.0116 H         1 UNK         0.1434 
     77 H77       -75.3903   29.6927  -73.0292 H         1 UNK         0.1329 
     78 H78       -77.2834   27.0759  -70.2223 H         1 UNK         0.1335 
     79 H79       -74.5382   27.3496  -72.5559 H         1 UNK         0.0680 
     80 H80       -75.1128   26.4888  -71.1496 H         1 UNK         0.0680 
     81 H81       -71.5213   27.2542  -70.3259 H         1 UNK         0.1032 
     82 H82       -72.3554   26.6102  -71.7129 H         1 UNK         0.1032 
     83 H83       -71.2214   29.4457  -71.5579 H         1 UNK         0.0461 
     84 H84       -69.8060   28.7831  -74.2864 H         1 UNK         0.3453 
     85 H85       -68.3538   28.0050  -73.6998 H         1 UNK         0.3453 
     86 H86       -72.0745   28.0140  -74.0274 H         1 UNK         0.2984 
     87 H87       -74.2226   29.7691  -75.0335 H         1 UNK         0.0554 
     88 H88       -73.7235   32.1877  -75.0452 H         1 UNK         0.0847 
     89 H89       -73.6576   31.5577  -76.6798 H         1 UNK         0.0847 
     90 H90       -72.1634   31.8984  -75.8050 H         1 UNK         0.0847 
     91 H91       -73.2909   28.5329  -76.5783 H         1 UNK         0.3141 
     92 H92       -71.1771   28.2557  -78.4365 H         1 UNK         0.0743 
     93 H93       -69.1815   27.1224  -76.4035 H         1 UNK         0.0784 
     94 H94       -69.2263   26.7235  -78.1200 H         1 UNK         0.0784 
     95 H95       -68.8363   28.3558  -77.6095 H         1 UNK         0.0784 
     96 H96       -72.1886   26.2870  -78.1362 H         1 UNK         0.3213 
     97 H97       -72.3188   24.0482  -77.0805 H         1 UNK         0.0855 
     98 H98       -73.4078   24.4207  -74.2423 H         1 UNK         0.0814 
     99 H99       -71.9765   23.5227  -74.7105 H         1 UNK         0.0814 
    100 H100      -73.5634   22.9488  -75.2005 H         1 UNK         0.0814 
    101 H101      -74.9000   25.1152  -76.1541 H         1 UNK         0.3105 
    102 H102      -75.8296   26.4057  -79.3146 H         1 UNK         0.0547 
    103 H103      -76.2704   23.9926  -79.8102 H         1 UNK         0.0837 
    104 H104      -76.8664   23.7501  -78.1739 H         1 UNK         0.0837 
    105 H105      -77.7362   24.8049  -79.2874 H         1 UNK         0.0837 
    106 H106      -77.4073   25.8783  -77.0177 H         1 UNK         0.3020 
    107 H107      -76.1540   28.0941  -74.7489 H         1 UNK         0.1245 
    108 H108      -78.7084   28.9791  -74.8766 H         1 UNK         0.0781 
    109 H109      -78.3899   29.0342  -76.5801 H         1 UNK         0.0781 
    110 H110      -78.5971   31.5497  -73.7785 H         1 UNK         0.0836 
    111 H111      -76.9634   32.0410  -73.4032 H         1 UNK         0.0836 
    112 H112      -78.6309   26.6624  -74.8780 H         1 UNK         0.3022 
    113 H113      -77.1455   23.6144  -73.5995 H         1 UNK         0.0747 
    114 H114      -78.9243   24.0523  -71.9144 H         1 UNK         0.0793 
    115 H115      -77.5232   25.0770  -71.6749 H         1 UNK         0.0793 
    116 H116      -78.9740   25.7501  -72.4013 H         1 UNK         0.0793 
    117 H117      -79.7364   24.6883  -74.6117 H         1 UNK         0.3047 
    118 H118      -79.9209   22.3875  -77.2145 H         1 UNK         0.0822 
    119 H119      -81.7419   21.1342  -76.0705 H         1 UNK         0.0807 
    120 H120      -81.1484   21.6672  -74.4985 H         1 UNK         0.0807 
    121 H121      -80.1686   20.6038  -75.4995 H         1 UNK         0.0807 
    122 H122      -81.7982   23.8504  -75.4445 H         1 UNK         0.2946 
    123 H123      -81.8229   26.7081  -77.5230 H         1 UNK         0.1144 
    124 H124      -84.2695   26.3304  -77.6909 H         1 UNK         0.0793 
    125 H125      -84.0687   24.6353  -77.2434 H         1 UNK         0.0793 
    126 H126      -83.4229   25.2317  -78.7664 H         1 UNK         0.0793 
    127 H127      -83.4546   26.0975  -75.3007 H         1 UNK         0.2896 
@<TRIPOS>BOND
     1    1    2 1    
     2    1   67 1    
     3    1   68 1    
     4    1   69 1    
     5    2    3 2    
     6    2    4 am   BACKBONE|DICT|INTERRES
     7    4    5 1    
     8    4   70 1    
     9    5    6 1    
    10    5   65 1    
    11    5   71 1    
    12    6    7 1    
    13    6   72 1    
    14    6   73 1    
    15    7    8 1    
    16    8    9 1    
    17    8   74 1    
    18    8   75 1    
    19    9   10 ar   
    20    9   14 ar   
    21   10   11 ar   
    22   10   76 1    
    23   11   12 ar   
    24   11   48 1    
    25   12   13 ar   
    26   12   77 1    
    27   13   14 ar   
    28   13   15 1    
    29   14   78 1    
    30   15   16 1    
    31   15   79 1    
    32   15   80 1    
    33   16   17 1    
    34   17   18 1    
    35   17   81 1    
    36   17   82 1    
    37   18   19 1    
    38   18   22 1    
    39   18   83 1    
    40   19   20 am   BACKBONE|DICT|INTERRES
    41   19   21 2    
    42   20   84 1    
    43   20   85 1    
    44   22   23 am   BACKBONE|DICT|INTERRES
    45   22   86 1    
    46   23   24 2    
    47   23   25 1    
    48   25   26 1    
    49   25   27 1    
    50   25   87 1    
    51   26   88 1    
    52   26   89 1    
    53   26   90 1    
    54   27   28 am   BACKBONE|DICT|INTERRES
    55   27   91 1    
    56   28   29 2    
    57   28   30 1    
    58   30   31 1    
    59   30   32 1    
    60   30   92 1    
    61   31   93 1    
    62   31   94 1    
    63   31   95 1    
    64   32   33 am   BACKBONE|DICT|INTERRES
    65   32   96 1    
    66   33   34 2    
    67   33   35 1    
    68   35   36 1    
    69   35   37 1    
    70   35   97 1    
    71   36   98 1    
    72   36   99 1    
    73   36  100 1    
    74   37   38 am   BACKBONE|DICT|INTERRES
    75   37  101 1    
    76   38   39 2    
    77   38   40 1    
    78   40   41 1    
    79   40   42 1    
    80   40  102 1    
    81   41  103 1    
    82   41  104 1    
    83   41  105 1    
    84   42   43 am   BACKBONE|DICT|INTERRES
    85   42  106 1    
    86   43   44 2    
    87   43   45 1    
    88   45   46 1    
    89   45   49 1    
    90   45  107 1    
    91   46   47 1    
    92   46  108 1    
    93   46  109 1    
    94   47   48 1    
    95   48  110 1    
    96   48  111 1    
    97   49   50 am   BACKBONE|DICT|INTERRES
    98   49  112 1    
    99   50   51 2    
   100   50   52 1    
   101   52   53 1    
   102   52   54 1    
   103   52  113 1    
   104   53  114 1    
   105   53  115 1    
   106   53  116 1    
   107   54   55 am   BACKBONE|DICT|INTERRES
   108   54  117 1    
   109   55   56 2    
   110   55   57 1    
   111   57   58 1    
   112   57   59 1    
   113   57  118 1    
   114   58  119 1    
   115   58  120 1    
   116   58  121 1    
   117   59   60 am   BACKBONE|DICT|INTERRES
   118   59  122 1    
   119   60   61 2    
   120   60   62 1    
   121   62   63 1    
   122   62   64 1    
   123   62  123 1    
   124   63  124 1    
   125   63  125 1    
   126   63  126 1    
   127   64   65 am   BACKBONE|DICT|INTERRES
   128   64  127 1    
   129   65   66 2    
@<TRIPOS>SUBSTRUCTURE
     1 UNK         1 GROUP             0       ****    0 ROOT    
