@<TRIPOS>MOLECULE
3R135
127   129    1
SMALL
USER_CHARGES


@<TRIPOS>ATOM
      1 CA        -85.2426   30.3334  -75.7393 C.3       0 UNK        -0.1998 
      2 C         -83.7260   30.3599  -75.8581 C.2       0 UNK         0.4909 
      3 O         -83.1436   31.4325  -76.0230 O.2       0 UNK        -0.5240 
      4 N         -83.0853   29.1894  -75.7804 N.am      1 UNK        -0.4739 
      5 CA        -81.6334   29.0204  -75.8807 C.3       1 UNK         0.0864 
      6 C6        -80.8636   29.4441  -74.5983 C.3       11 UNK        -0.0881 
      7 S7        -81.4486   28.6467  -73.0631 S.3       11 UNK        -0.2682 
      8 C8        -80.4542   29.5192  -71.8142 C.3       11 UNK         0.0289 
      9 C9        -79.0404   28.9635  -71.7037 C.ar      11 UNK        -0.0687 
     10 C10       -78.8328   27.7037  -71.1310 C.ar      11 UNK        -0.0823 
     11 C11       -77.5386   27.2068  -70.9511 C.ar      11 UNK        -0.0830 
     12 C12       -76.4510   27.9774  -71.3639 C.ar      11 UNK        -0.1021 
     13 C13       -76.6395   29.2359  -71.9412 C.ar      11 UNK        -0.0753 
     14 C14       -77.9391   29.7236  -72.1156 C.ar      11 UNK        -0.0933 
     15 C15       -75.4262   30.0564  -72.3569 C.3       11 UNK         0.0166 
     16 S16       -74.3105   30.3309  -70.9414 S.3       11 UNK        -0.2615 
     17 C17       -72.7583   30.8692  -71.7411 C.3       11 UNK        -0.0865 
     18 CA        -71.8931   29.7440  -72.3889 C.3       10 UNK         0.0862 
     19 C         -71.6355   28.5174  -71.4688 C.2       10 UNK         0.5551 
     20 N         -72.0273   27.3032  -71.8367 N.am      10 UNK        -0.7319 
     21 O         -71.0333   28.6680  -70.4085 O.2       10 UNK        -0.5018 
     22 N         -72.3345   29.4142  -73.7532 N.am      10 UNK        -0.4509 
     23 C         -72.0736   30.1803  -74.8204 C.2       10 UNK         0.4899 
     24 O         -71.4206   31.2246  -74.7675 O.2       10 UNK        -0.4839 
     25 CA        -72.6582   29.7159  -76.1650 C.3       9 UNK         0.0222 
     26 CB        -72.1490   30.5383  -77.3681 C.3       9 UNK        -0.1966 
     27 N         -72.4838   28.2819  -76.4070 N.am      9 UNK        -0.4218 
     28 C         -71.3370   27.5930  -76.5145 C.2       9 UNK         0.5020 
     29 O         -70.2188   28.0956  -76.3947 O.2       9 UNK        -0.5274 
     30 CA        -71.4421   26.0809  -76.8026 C.3       8 UNK         0.0270 
     31 CB        -70.9944   25.2724  -75.5730 C.3       8 UNK        -0.1976 
     32 N         -72.7868   25.6447  -77.1923 N.am      8 UNK        -0.4313 
     33 C         -73.3855   25.9101  -78.3621 C.2       8 UNK         0.5041 
     34 O         -72.8251   26.4606  -79.3102 O.2       8 UNK        -0.5577 
     35 CA        -74.8822   25.5581  -78.4640 C.3       7 UNK         0.0284 
     36 CB        -75.0735   24.0900  -78.8737 C.3       7 UNK        -0.1958 
     37 N         -75.6087   25.8362  -77.2173 N.am      7 UNK        -0.4454 
     38 C         -75.7653   27.0639  -76.6977 C.2       7 UNK         0.5089 
     39 O         -75.3813   28.0911  -77.2536 O.2       7 UNK        -0.5125 
     40 CA        -76.3998   27.1727  -75.3057 C.3       6 UNK         0.0408 
     41 CB        -77.9222   27.2588  -75.4155 C.3       6 UNK        -0.1791 
     42 N         -76.0313   26.0486  -74.4512 N.am      6 UNK        -0.4762 
     43 C         -74.8576   25.9364  -73.8155 C.2       6 UNK         0.5007 
     44 O         -73.9747   26.7995  -73.8472 O.2       6 UNK        -0.5032 
     45 CA        -74.6064   24.6137  -73.0590 C.3       5 UNK         0.0783 
     46 C46       -75.1105   24.6553  -71.5948 C.3       11 UNK        -0.0857 
     47 S47       -76.9311   24.5299  -71.4278 S.3       11 UNK        -0.2512 
     48 C48       -77.3148   25.8698  -70.2577 C.3       11 UNK         0.0225 
     49 N         -75.1376   23.4487  -73.7711 N.am      5 UNK        -0.4615 
     50 C         -74.7243   23.0219  -74.9685 C.2       4 UNK         0.5053 
     51 O         -73.8042   23.5422  -75.5957 O.2       4 UNK        -0.5105 
     52 CA        -75.4857   21.8394  -75.5881 C.3       4 UNK         0.0263 
     53 CB        -74.8040   20.5138  -75.2149 C.3       4 UNK        -0.1981 
     54 N         -76.9058   21.7771  -75.2249 N.am      4 UNK        -0.4224 
     55 C         -77.8226   22.7202  -75.4889 C.2       3 UNK         0.4895 
     56 O         -77.5574   23.8000  -76.0235 O.2       3 UNK        -0.5091 
     57 CA        -79.2674   22.3524  -75.1047 C.3       3 UNK         0.0250 
     58 CB        -79.4287   22.1433  -73.5822 C.3       3 UNK        -0.1996 
     59 N         -80.2789   23.2734  -75.6440 N.am      3 UNK        -0.4254 
     60 C         -80.6149   24.5001  -75.2165 C.2       2 UNK         0.5004 
     61 O         -80.1158   25.0678  -74.2433 O.2       2 UNK        -0.5226 
     62 CA        -81.7645   25.1701  -75.9907 C.3       2 UNK         0.0269 
     63 CB        -83.1050   24.4892  -75.6586 C.3       2 UNK        -0.1926 
     64 N         -81.8855   26.5926  -75.6654 N.am      2 UNK        -0.4687 
     65 C         -81.3212   27.5907  -76.3569 C.2       1 UNK         0.5165 
     66 O         -80.6427   27.4218  -77.3710 O.2       1 UNK        -0.5079 
     67 H67       -85.5624   30.9398  -74.8924 H         1 UNK         0.0900 
     68 H68       -85.6971   30.7410  -76.6419 H         1 UNK         0.0900 
     69 H69       -85.6233   29.3224  -75.5945 H         1 UNK         0.0900 
     70 H70       -83.6136   28.3332  -75.6838 H         1 UNK         0.2959 
     71 H71       -81.2888   29.6729  -76.6870 H         1 UNK         0.1079 
     72 H72       -79.7949   29.2656  -74.7076 H         1 UNK         0.0837 
     73 H73       -80.9618   30.5230  -74.4691 H         1 UNK         0.0837 
     74 H74       -80.9478   29.4178  -70.8467 H         1 UNK         0.0685 
     75 H75       -80.4409   30.5877  -72.0350 H         1 UNK         0.0685 
     76 H76       -79.6839   27.1202  -70.8070 H         1 UNK         0.1434 
     77 H77       -75.4444   27.6156  -71.2170 H         1 UNK         0.1329 
     78 H78       -78.0929   30.7012  -72.5514 H         1 UNK         0.1335 
     79 H79       -74.9064   29.5147  -73.1453 H         1 UNK         0.0680 
     80 H80       -75.7220   31.0194  -72.7754 H         1 UNK         0.0680 
     81 H81       -72.1653   31.3614  -70.9685 H         1 UNK         0.1032 
     82 H82       -72.9838   31.6544  -72.4640 H         1 UNK         0.1032 
     83 H83       -70.8913   30.1642  -72.5017 H         1 UNK         0.0461 
     84 H84       -71.8185   26.5301  -71.2265 H         1 UNK         0.3453 
     85 H85       -72.5864   27.1526  -72.6681 H         1 UNK         0.3453 
     86 H86       -72.8689   28.5602  -73.8661 H         1 UNK         0.2984 
     87 H87       -73.7336   29.8818  -76.0911 H         1 UNK         0.0554 
     88 H88       -72.3899   31.5954  -77.2501 H         1 UNK         0.0847 
     89 H89       -72.6098   30.2045  -78.2979 H         1 UNK         0.0847 
     90 H90       -71.0673   30.4623  -77.4830 H         1 UNK         0.0847 
     91 H91       -73.3469   27.7713  -76.5412 H         1 UNK         0.3141 
     92 H92       -70.7614   25.8589  -77.6268 H         1 UNK         0.0743 
     93 H93       -69.9785   25.5373  -75.2771 H         1 UNK         0.0784 
     94 H94       -71.6418   25.4543  -74.7146 H         1 UNK         0.0784 
     95 H95       -71.0029   24.2016  -75.7774 H         1 UNK         0.0784 
     96 H96       -73.2927   25.0817  -76.5107 H         1 UNK         0.3213 
     97 H97       -75.3199   26.1864  -79.2428 H         1 UNK         0.0855 
     98 H98       -74.5432   23.4119  -78.2067 H         1 UNK         0.0814 
     99 H99       -74.6847   23.9182  -79.8782 H         1 UNK         0.0814 
    100 H100      -76.1267   23.8077  -78.8796 H         1 UNK         0.0814 
    101 H101      -76.0132   25.0488  -76.7211 H         1 UNK         0.3105 
    102 H102      -76.0456   28.0953  -74.8417 H         1 UNK         0.0547 
    103 H103      -78.3409   26.3824  -75.9099 H         1 UNK         0.0837 
    104 H104      -78.2136   28.1302  -76.0018 H         1 UNK         0.0837 
    105 H105      -78.3870   27.3436  -74.4325 H         1 UNK         0.0837 
    106 H106      -76.6934   25.2850  -74.3952 H         1 UNK         0.3020 
    107 H107      -73.5210   24.4925  -73.0255 H         1 UNK         0.1245 
    108 H108      -74.7305   25.5377  -71.0804 H         1 UNK         0.0781 
    109 H109      -74.6844   23.8108  -71.0511 H         1 UNK         0.0781 
    110 H110      -76.5199   25.9594  -69.5159 H         1 UNK         0.0836 
    111 H111      -78.2090   25.5877  -69.6998 H         1 UNK         0.0836 
    112 H112      -75.9135   22.9782  -73.3284 H         1 UNK         0.3022 
    113 H113      -75.4367   21.9493  -76.6720 H         1 UNK         0.0747 
    114 H114      -75.2653   19.6703  -75.7290 H         1 UNK         0.0793 
    115 H115      -73.7501   20.5242  -75.4976 H         1 UNK         0.0793 
    116 H116      -74.8515   20.3219  -74.1422 H         1 UNK         0.0793 
    117 H117      -77.2136   20.9201  -74.7881 H         1 UNK         0.3047 
    118 H118      -79.4748   21.3959  -75.5874 H         1 UNK         0.0822 
    119 H119      -80.4636   21.9240  -73.3196 H         1 UNK         0.0807 
    120 H120      -79.1199   23.0215  -73.0148 H         1 UNK         0.0807 
    121 H121      -78.8260   21.3067  -73.2279 H         1 UNK         0.0807 
    122 H122      -80.7544   22.9279  -76.4659 H         1 UNK         0.2946 
    123 H123      -81.5675   25.0545  -77.0595 H         1 UNK         0.1144 
    124 H124      -83.9286   24.9487  -76.2055 H         1 UNK         0.0793 
    125 H125      -83.3347   24.5505  -74.5938 H         1 UNK         0.0793 
    126 H126      -83.0932   23.4325  -75.9282 H         1 UNK         0.0793 
    127 H127      -82.3118   26.8131  -74.7757 H         1 UNK         0.2896 
@<TRIPOS>BOND
     1    1    2 1    
     2    1   67 1    
     3    1   68 1    
     4    1   69 1    
     5    2    3 2    
     6    2    4 am   BACKBONE|DICT|INTERRES
     7    4    5 1    
     8    4   70 1    
     9    5    6 1    
    10    5   65 1    
    11    5   71 1    
    12    6    7 1    
    13    6   72 1    
    14    6   73 1    
    15    7    8 1    
    16    8    9 1    
    17    8   74 1    
    18    8   75 1    
    19    9   10 ar   
    20    9   14 ar   
    21   10   11 ar   
    22   10   76 1    
    23   11   12 ar   
    24   11   48 1    
    25   12   13 ar   
    26   12   77 1    
    27   13   14 ar   
    28   13   15 1    
    29   14   78 1    
    30   15   16 1    
    31   15   79 1    
    32   15   80 1    
    33   16   17 1    
    34   17   18 1    
    35   17   81 1    
    36   17   82 1    
    37   18   19 1    
    38   18   22 1    
    39   18   83 1    
    40   19   20 am   BACKBONE|DICT|INTERRES
    41   19   21 2    
    42   20   84 1    
    43   20   85 1    
    44   22   23 am   BACKBONE|DICT|INTERRES
    45   22   86 1    
    46   23   24 2    
    47   23   25 1    
    48   25   26 1    
    49   25   27 1    
    50   25   87 1    
    51   26   88 1    
    52   26   89 1    
    53   26   90 1    
    54   27   28 am   BACKBONE|DICT|INTERRES
    55   27   91 1    
    56   28   29 2    
    57   28   30 1    
    58   30   31 1    
    59   30   32 1    
    60   30   92 1    
    61   31   93 1    
    62   31   94 1    
    63   31   95 1    
    64   32   33 am   BACKBONE|DICT|INTERRES
    65   32   96 1    
    66   33   34 2    
    67   33   35 1    
    68   35   36 1    
    69   35   37 1    
    70   35   97 1    
    71   36   98 1    
    72   36   99 1    
    73   36  100 1    
    74   37   38 am   BACKBONE|DICT|INTERRES
    75   37  101 1    
    76   38   39 2    
    77   38   40 1    
    78   40   41 1    
    79   40   42 1    
    80   40  102 1    
    81   41  103 1    
    82   41  104 1    
    83   41  105 1    
    84   42   43 am   BACKBONE|DICT|INTERRES
    85   42  106 1    
    86   43   44 2    
    87   43   45 1    
    88   45   46 1    
    89   45   49 1    
    90   45  107 1    
    91   46   47 1    
    92   46  108 1    
    93   46  109 1    
    94   47   48 1    
    95   48  110 1    
    96   48  111 1    
    97   49   50 am   BACKBONE|DICT|INTERRES
    98   49  112 1    
    99   50   51 2    
   100   50   52 1    
   101   52   53 1    
   102   52   54 1    
   103   52  113 1    
   104   53  114 1    
   105   53  115 1    
   106   53  116 1    
   107   54   55 am   BACKBONE|DICT|INTERRES
   108   54  117 1    
   109   55   56 2    
   110   55   57 1    
   111   57   58 1    
   112   57   59 1    
   113   57  118 1    
   114   58  119 1    
   115   58  120 1    
   116   58  121 1    
   117   59   60 am   BACKBONE|DICT|INTERRES
   118   59  122 1    
   119   60   61 2    
   120   60   62 1    
   121   62   63 1    
   122   62   64 1    
   123   62  123 1    
   124   63  124 1    
   125   63  125 1    
   126   63  126 1    
   127   64   65 am   BACKBONE|DICT|INTERRES
   128   64  127 1    
   129   65   66 2    
@<TRIPOS>SUBSTRUCTURE
     1 UNK         1 GROUP             0       ****    0 ROOT    
