@<TRIPOS>MOLECULE
3R135
127   129    1
SMALL
USER_CHARGES


@<TRIPOS>ATOM
      1 CA        -77.6889   26.1237  -71.7807 C.3       0 UNK        -0.1998 
      2 C         -79.0889   25.6002  -71.5022 C.2       0 UNK         0.4909 
      3 O         -79.2543   24.4154  -71.2139 O.2       0 UNK        -0.5240 
      4 N         -80.0995   26.4746  -71.5907 N.am      1 UNK        -0.4739 
      5 CA        -81.5097   26.1627  -71.3045 C.3       1 UNK         0.0864 
      6 C6        -82.3053   27.4274  -70.8964 C.3       11 UNK        -0.0881 
      7 S7        -81.6603   28.1639  -69.3549 S.3       11 UNK        -0.2682 
      8 C8        -81.1772   29.8347  -69.8898 C.3       11 UNK         0.0289 
      9 C9        -79.9436   29.8291  -70.7819 C.ar      11 UNK        -0.0687 
     10 C10       -80.0661   30.0548  -72.1556 C.ar      11 UNK        -0.0823 
     11 C11       -78.9345   30.1058  -72.9740 C.ar      11 UNK        -0.0830 
     12 C12       -77.6710   29.9313  -72.3974 C.ar      11 UNK        -0.1021 
     13 C13       -77.5281   29.6925  -71.0263 C.ar      11 UNK        -0.0753 
     14 C14       -78.6744   29.6400  -70.2263 C.ar      11 UNK        -0.0933 
     15 C15       -76.1553   29.4703  -70.3914 C.3       11 UNK         0.0166 
     16 S16       -74.8505   30.5833  -71.0201 S.3       11 UNK        -0.2615 
     17 C17       -74.0137   29.5091  -72.2385 C.3       11 UNK        -0.0865 
     18 CA        -72.8850   30.2363  -73.0222 C.3       10 UNK         0.0862 
     19 C         -71.5623   30.2951  -72.1940 C.2       10 UNK         0.5551 
     20 N         -70.5257   29.5349  -72.5315 N.am      10 UNK        -0.7319 
     21 O         -71.4695   31.0539  -71.2328 O.2       10 UNK        -0.5018 
     22 N         -72.7429   29.6608  -74.3684 N.am      10 UNK        -0.4509 
     23 C         -71.9848   30.1515  -75.3588 C.2       10 UNK         0.4899 
     24 O         -71.4367   31.2541  -75.3203 O.2       10 UNK        -0.4839 
     25 CA        -71.7902   29.2325  -76.5851 C.3       9 UNK         0.0222 
     26 CB        -70.4806   29.5220  -77.3480 C.3       9 UNK        -0.1966 
     27 N         -71.8966   27.8041  -76.2487 N.am      9 UNK        -0.4218 
     28 C         -71.1418   27.1143  -75.3780 C.2       9 UNK         0.5020 
     29 O         -70.1740   27.5900  -74.7825 O.2       9 UNK        -0.5274 
     30 CA        -71.5792   25.6783  -75.0453 C.3       8 UNK         0.0270 
     31 CB        -72.2964   25.6544  -73.6842 C.3       8 UNK        -0.1976 
     32 N         -72.4567   25.0864  -76.0582 N.am      8 UNK        -0.4313 
     33 C         -72.0280   24.5688  -77.2176 C.2       8 UNK         0.5041 
     34 O         -70.8434   24.5233  -77.5520 O.2       8 UNK        -0.5577 
     35 CA        -73.1023   24.0164  -78.1695 C.3       7 UNK         0.0284 
     36 CB        -73.6050   22.6455  -77.6895 C.3       7 UNK        -0.1958 
     37 N         -74.2321   24.9345  -78.3341 N.am      7 UNK        -0.4454 
     38 C         -74.1583   26.1150  -78.9658 C.2       7 UNK         0.5089 
     39 O         -73.1365   26.5488  -79.4973 O.2       7 UNK        -0.5125 
     40 CA        -75.4371   26.9661  -78.9995 C.3       6 UNK         0.0408 
     41 CB        -76.3053   26.5935  -80.2116 C.3       6 UNK        -0.1791 
     42 N         -76.2280   26.8448  -77.7746 N.am      6 UNK        -0.4762 
     43 C         -75.8668   27.3534  -76.5874 C.2       6 UNK         0.5007 
     44 O         -74.8137   27.9593  -76.3907 O.2       6 UNK        -0.5032 
     45 CA        -76.8256   27.0940  -75.4074 C.3       5 UNK         0.0783 
     46 C46       -78.1012   27.9728  -75.4993 C.3       11 UNK        -0.0857 
     47 S47       -77.7848   29.7705  -75.5426 S.3       11 UNK        -0.2512 
     48 C48       -79.1099   30.4099  -74.4617 C.3       11 UNK         0.0225 
     49 N         -77.1798   25.6733  -75.3114 N.am      5 UNK        -0.4615 
     50 C         -76.3139   24.6504  -75.2146 C.2       4 UNK         0.5053 
     51 O         -75.0995   24.7956  -75.0875 O.2       4 UNK        -0.5105 
     52 CA        -76.8771   23.2200  -75.3291 C.3       4 UNK         0.0263 
     53 CB        -77.0928   22.6191  -73.9319 C.3       4 UNK        -0.1981 
     54 N         -78.1250   23.1306  -76.0897 N.am      4 UNK        -0.4224 
     55 C         -78.3110   23.5513  -77.3502 C.2       3 UNK         0.4895 
     56 O         -77.3982   23.9395  -78.0810 O.2       3 UNK        -0.5091 
     57 CA        -79.7681   23.6225  -77.8546 C.3       3 UNK         0.0250 
     58 CB        -80.0655   22.4424  -78.7929 C.3       3 UNK        -0.1996 
     59 N         -80.7898   23.6692  -76.7938 N.am      3 UNK        -0.4254 
     60 C         -80.8563   24.5785  -75.8083 C.2       2 UNK         0.5004 
     61 O         -80.0519   25.5074  -75.6929 O.2       2 UNK        -0.5226 
     62 CA        -81.9393   24.3856  -74.7333 C.3       2 UNK         0.0269 
     63 CB        -82.1418   22.8956  -74.3676 C.3       2 UNK        -0.1926 
     64 N         -81.5237   25.1537  -73.5600 N.am      2 UNK        -0.4687 
     65 C         -82.2196   25.3905  -72.4427 C.2       1 UNK         0.5165 
     66 O         -83.3828   25.0175  -72.2815 O.2       1 UNK        -0.5079 
     67 H67       -77.1737   26.3228  -70.8419 H         1 UNK         0.0900 
     68 H68       -77.7130   27.0434  -72.3629 H         1 UNK         0.0900 
     69 H69       -77.1089   25.3876  -72.3354 H         1 UNK         0.0900 
     70 H70       -79.9021   27.4451  -71.7937 H         1 UNK         0.2959 
     71 H71       -81.5276   25.4826  -70.4495 H         1 UNK         0.1079 
     72 H72       -83.3541   27.1833  -70.7159 H         1 UNK         0.0837 
     73 H73       -82.3030   28.1624  -71.7026 H         1 UNK         0.0837 
     74 H74       -82.0205   30.3129  -70.3909 H         1 UNK         0.0685 
     75 H75       -80.9727   30.4378  -69.0039 H         1 UNK         0.0685 
     76 H76       -81.0455   30.2154  -72.5861 H         1 UNK         0.1434 
     77 H77       -76.7926   29.9977  -73.0185 H         1 UNK         0.1329 
     78 H78       -78.5830   29.4606  -69.1636 H         1 UNK         0.1335 
     79 H79       -75.8582   28.4309  -70.5334 H         1 UNK         0.0680 
     80 H80       -76.2192   29.6219  -69.3128 H         1 UNK         0.0680 
     81 H81       -74.7719   29.1425  -72.9300 H         1 UNK         0.1032 
     82 H82       -73.6300   28.6196  -71.7342 H         1 UNK         0.1032 
     83 H83       -73.1941   31.2714  -73.1799 H         1 UNK         0.0461 
     84 H84       -70.5570   28.9210  -73.3382 H         1 UNK         0.3453 
     85 H85       -69.6806   29.5943  -71.9865 H         1 UNK         0.3453 
     86 H86       -73.1788   28.7642  -74.5246 H         1 UNK         0.2984 
     87 H87       -72.6196   29.4472  -77.2603 H         1 UNK         0.0554 
     88 H88       -70.3699   28.8619  -78.2084 H         1 UNK         0.0847 
     89 H89       -69.6041   29.3952  -76.7120 H         1 UNK         0.0847 
     90 H90       -70.4639   30.5461  -77.7227 H         1 UNK         0.0847 
     91 H91       -72.7177   27.3438  -76.6229 H         1 UNK         0.3141 
     92 H92       -70.6760   25.0697  -74.9649 H         1 UNK         0.0743 
     93 H93       -73.2059   26.2565  -73.6952 H         1 UNK         0.0784 
     94 H94       -72.5733   24.6389  -73.4004 H         1 UNK         0.0784 
     95 H95       -71.6540   26.0475  -72.8947 H         1 UNK         0.0784 
     96 H96       -73.4493   25.0392  -75.8282 H         1 UNK         0.3213 
     97 H97       -72.6413   23.8804  -79.1504 H         1 UNK         0.0855 
     98 H98       -73.9921   22.6895  -76.6722 H         1 UNK         0.0814 
     99 H99       -72.7940   21.9160  -77.6922 H         1 UNK         0.0814 
    100 H100      -74.3926   22.2577  -78.3361 H         1 UNK         0.0814 
    101 H101      -75.1259   24.6520  -77.9525 H         1 UNK         0.3105 
    102 H102      -75.1381   28.0112  -79.1061 H         1 UNK         0.0547 
    103 H103      -76.6469   25.5588  -80.1641 H         1 UNK         0.0837 
    104 H104      -77.1840   27.2345  -80.2830 H         1 UNK         0.0837 
    105 H105      -75.7455   26.7084  -81.1408 H         1 UNK         0.0837 
    106 H106      -77.0726   26.2915  -77.8311 H         1 UNK         0.3020 
    107 H107      -76.2892   27.3572  -74.4937 H         1 UNK         0.1245 
    108 H108      -78.6798   27.7170  -76.3888 H         1 UNK         0.0781 
    109 H109      -78.7514   27.7520  -74.6515 H         1 UNK         0.0781 
    110 H110      -79.1573   31.4927  -74.5833 H         1 UNK         0.0836 
    111 H111      -80.0642   30.0183  -74.8178 H         1 UNK         0.0836 
    112 H112      -78.1678   25.4646  -75.4312 H         1 UNK         0.3022 
    113 H113      -76.1363   22.6144  -75.8517 H         1 UNK         0.0747 
    114 H114      -77.3759   21.5680  -73.9914 H         1 UNK         0.0793 
    115 H115      -76.1796   22.6728  -73.3372 H         1 UNK         0.0793 
    116 H116      -77.8729   23.1455  -73.3806 H         1 UNK         0.0793 
    117 H117      -78.9381   22.8198  -75.5798 H         1 UNK         0.3047 
    118 H118      -79.8566   24.5472  -78.4285 H         1 UNK         0.0822 
    119 H119      -81.0519   22.5345  -79.2479 H         1 UNK         0.0807 
    120 H120      -80.0242   21.4877  -78.2670 H         1 UNK         0.0807 
    121 H121      -79.3400   22.3976  -79.6067 H         1 UNK         0.0807 
    122 H122      -81.4819   22.9338  -76.8113 H         1 UNK         0.2946 
    123 H123      -82.8727   24.8038  -75.1156 H         1 UNK         0.1144 
    124 H124      -82.8824   22.7693  -73.5784 H         1 UNK         0.0793 
    125 H125      -81.2143   22.4366  -74.0227 H         1 UNK         0.0793 
    126 H126      -82.5040   22.3164  -75.2174 H         1 UNK         0.0793 
    127 H127      -80.5970   25.5524  -73.6446 H         1 UNK         0.2896 
@<TRIPOS>BOND
     1    1    2 1    
     2    1   67 1    
     3    1   68 1    
     4    1   69 1    
     5    2    3 2    
     6    2    4 am   BACKBONE|DICT|INTERRES
     7    4    5 1    
     8    4   70 1    
     9    5    6 1    
    10    5   65 1    
    11    5   71 1    
    12    6    7 1    
    13    6   72 1    
    14    6   73 1    
    15    7    8 1    
    16    8    9 1    
    17    8   74 1    
    18    8   75 1    
    19    9   10 ar   
    20    9   14 ar   
    21   10   11 ar   
    22   10   76 1    
    23   11   12 ar   
    24   11   48 1    
    25   12   13 ar   
    26   12   77 1    
    27   13   14 ar   
    28   13   15 1    
    29   14   78 1    
    30   15   16 1    
    31   15   79 1    
    32   15   80 1    
    33   16   17 1    
    34   17   18 1    
    35   17   81 1    
    36   17   82 1    
    37   18   19 1    
    38   18   22 1    
    39   18   83 1    
    40   19   20 am   BACKBONE|DICT|INTERRES
    41   19   21 2    
    42   20   84 1    
    43   20   85 1    
    44   22   23 am   BACKBONE|DICT|INTERRES
    45   22   86 1    
    46   23   24 2    
    47   23   25 1    
    48   25   26 1    
    49   25   27 1    
    50   25   87 1    
    51   26   88 1    
    52   26   89 1    
    53   26   90 1    
    54   27   28 am   BACKBONE|DICT|INTERRES
    55   27   91 1    
    56   28   29 2    
    57   28   30 1    
    58   30   31 1    
    59   30   32 1    
    60   30   92 1    
    61   31   93 1    
    62   31   94 1    
    63   31   95 1    
    64   32   33 am   BACKBONE|DICT|INTERRES
    65   32   96 1    
    66   33   34 2    
    67   33   35 1    
    68   35   36 1    
    69   35   37 1    
    70   35   97 1    
    71   36   98 1    
    72   36   99 1    
    73   36  100 1    
    74   37   38 am   BACKBONE|DICT|INTERRES
    75   37  101 1    
    76   38   39 2    
    77   38   40 1    
    78   40   41 1    
    79   40   42 1    
    80   40  102 1    
    81   41  103 1    
    82   41  104 1    
    83   41  105 1    
    84   42   43 am   BACKBONE|DICT|INTERRES
    85   42  106 1    
    86   43   44 2    
    87   43   45 1    
    88   45   46 1    
    89   45   49 1    
    90   45  107 1    
    91   46   47 1    
    92   46  108 1    
    93   46  109 1    
    94   47   48 1    
    95   48  110 1    
    96   48  111 1    
    97   49   50 am   BACKBONE|DICT|INTERRES
    98   49  112 1    
    99   50   51 2    
   100   50   52 1    
   101   52   53 1    
   102   52   54 1    
   103   52  113 1    
   104   53  114 1    
   105   53  115 1    
   106   53  116 1    
   107   54   55 am   BACKBONE|DICT|INTERRES
   108   54  117 1    
   109   55   56 2    
   110   55   57 1    
   111   57   58 1    
   112   57   59 1    
   113   57  118 1    
   114   58  119 1    
   115   58  120 1    
   116   58  121 1    
   117   59   60 am   BACKBONE|DICT|INTERRES
   118   59  122 1    
   119   60   61 2    
   120   60   62 1    
   121   62   63 1    
   122   62   64 1    
   123   62  123 1    
   124   63  124 1    
   125   63  125 1    
   126   63  126 1    
   127   64   65 am   BACKBONE|DICT|INTERRES
   128   64  127 1    
   129   65   66 2    
@<TRIPOS>SUBSTRUCTURE
     1 UNK         1 GROUP             0       ****    0 ROOT    
