@<TRIPOS>MOLECULE
3R135
127   129    1
SMALL
USER_CHARGES


@<TRIPOS>ATOM
      1 CA        -78.8533   28.5776  -68.1436 C.3       0 UNK        -0.1998 
      2 C         -80.0451   27.7029  -68.5019 C.2       0 UNK         0.4909 
      3 O         -80.6076   27.0425  -67.6279 O.2       0 UNK        -0.5240 
      4 N         -80.4313   27.6967  -69.7816 N.am      1 UNK        -0.4739 
      5 CA        -81.4897   26.8509  -70.3403 C.3       1 UNK         0.0864 
      6 C6        -82.2710   27.5770  -71.4677 C.3       11 UNK        -0.0881 
      7 S7        -81.2229   28.1456  -72.8536 S.3       11 UNK        -0.2682 
      8 C8        -81.1211   29.9414  -72.5520 C.3       11 UNK         0.0289 
      9 C9        -79.7596   30.4791  -72.9655 C.ar      11 UNK        -0.0687 
     10 C10       -79.3661   30.4371  -74.3063 C.ar      11 UNK        -0.0823 
     11 C11       -78.0745   30.8208  -74.6834 C.ar      11 UNK        -0.0830 
     12 C12       -77.1960   31.3086  -73.7114 C.ar      11 UNK        -0.1021 
     13 C13       -77.5860   31.3803  -72.3703 C.ar      11 UNK        -0.0753 
     14 C14       -78.8710   30.9698  -72.0039 C.ar      11 UNK        -0.0933 
     15 C15       -76.6072   31.8711  -71.3128 C.3       11 UNK         0.0166 
     16 S16       -75.9841   30.5190  -70.2586 S.3       11 UNK        -0.2615 
     17 C17       -75.1177   29.4491  -71.4610 C.3       11 UNK        -0.0865 
     18 CA        -75.6438   27.9871  -71.4699 C.3       10 UNK         0.0862 
     19 C         -77.0711   27.8645  -72.0782 C.2       10 UNK         0.5551 
     20 N         -77.2226   27.7580  -73.3889 N.am      10 UNK        -0.7319 
     21 O         -78.0494   27.8093  -71.3415 O.2       10 UNK        -0.5018 
     22 N         -74.6609   27.0411  -72.0271 N.am      10 UNK        -0.4509 
     23 C         -74.1829   27.0152  -73.2768 C.2       10 UNK         0.4899 
     24 O         -74.4857   27.8325  -74.1507 O.2       10 UNK        -0.4839 
     25 CA        -73.2549   25.8362  -73.6096 C.3       9 UNK         0.0222 
     26 CB        -74.0618   24.5295  -73.6893 C.3       9 UNK        -0.1966 
     27 N         -72.5764   26.0663  -74.8857 N.am      9 UNK        -0.4218 
     28 C         -71.4827   26.8310  -75.0227 C.2       9 UNK         0.5020 
     29 O         -70.8599   27.2984  -74.0663 O.2       9 UNK        -0.5274 
     30 CA        -71.0215   27.1643  -76.4559 C.3       8 UNK         0.0270 
     31 CB        -69.5055   27.4430  -76.5546 C.3       8 UNK        -0.1976 
     32 N         -71.4516   26.1861  -77.4604 N.am      8 UNK        -0.4313 
     33 C         -71.0760   24.9016  -77.5732 C.2       8 UNK         0.5041 
     34 O         -70.2481   24.3639  -76.8366 O.2       8 UNK        -0.5577 
     35 CA        -71.7459   24.0605  -78.6781 C.3       7 UNK         0.0284 
     36 CB        -72.3042   22.7458  -78.1041 C.3       7 UNK        -0.1958 
     37 N         -72.8334   24.7877  -79.3385 N.am      7 UNK        -0.4454 
     38 C         -72.7154   25.4834  -80.4784 C.2       7 UNK         0.5089 
     39 O         -71.6856   25.5229  -81.1516 O.2       7 UNK        -0.5125 
     40 CA        -73.9419   26.2969  -80.9382 C.3       6 UNK         0.0408 
     41 CB        -74.7162   25.5288  -82.0209 C.3       6 UNK        -0.1791 
     42 N         -74.8608   26.6533  -79.8515 N.am      6 UNK        -0.4762 
     43 C         -74.5737   27.4737  -78.8285 C.2       6 UNK         0.5007 
     44 O         -73.4949   28.0528  -78.7041 O.2       6 UNK        -0.5032 
     45 CA        -75.6424   27.6046  -77.7248 C.3       5 UNK         0.0783 
     46 C46       -76.6090   28.7766  -78.0298 C.3       11 UNK        -0.0857 
     47 S47       -77.8717   28.9622  -76.7253 S.3       11 UNK        -0.2512 
     48 C48       -77.6064   30.6634  -76.1255 C.3       11 UNK         0.0225 
     49 N         -76.3648   26.3452  -77.5051 N.am      5 UNK        -0.4615 
     50 C         -75.8331   25.1832  -77.1128 C.2       4 UNK         0.5053 
     51 O         -74.6258   25.0278  -76.9153 O.2       4 UNK        -0.5105 
     52 CA        -76.8176   24.0075  -76.9387 C.3       4 UNK         0.0263 
     53 CB        -76.1323   22.7097  -76.4740 C.3       4 UNK        -0.1981 
     54 N         -77.9255   24.3192  -76.0280 N.am      4 UNK        -0.4224 
     55 C         -78.9889   25.0802  -76.3161 C.2       3 UNK         0.4895 
     56 O         -79.1398   25.6271  -77.4098 O.2       3 UNK        -0.5091 
     57 CA        -80.0679   25.2926  -75.2352 C.3       3 UNK         0.0250 
     58 CB        -81.2979   24.4083  -75.5160 C.3       3 UNK        -0.1996 
     59 N         -79.6451   25.1574  -73.8320 N.am      3 UNK        -0.4254 
     60 C         -79.1942   24.0776  -73.1748 C.2       2 UNK         0.5004 
     61 O         -78.9370   23.0029  -73.7167 O.2       2 UNK        -0.5226 
     62 CA        -78.9735   24.2176  -71.6570 C.3       2 UNK         0.0269 
     63 CB        -77.4701   24.2544  -71.3346 C.3       2 UNK        -0.1926 
     64 N         -79.6286   25.4039  -71.0921 N.am      2 UNK        -0.4687 
     65 C         -80.9402   25.4864  -70.8128 C.2       1 UNK         0.5165 
     66 O         -81.7153   24.5358  -70.9273 O.2       1 UNK        -0.5079 
     67 H67       -78.0050   27.9569  -67.8572 H         1 UNK         0.0900 
     68 H68       -79.1004   29.2298  -67.3066 H         1 UNK         0.0900 
     69 H69       -78.5457   29.2046  -68.9804 H         1 UNK         0.0900 
     70 H70       -79.8601   28.1807  -70.4677 H         1 UNK         0.2959 
     71 H71       -82.2096   26.6257  -69.5501 H         1 UNK         0.1079 
     72 H72       -83.0441   26.9219  -71.8740 H         1 UNK         0.0837 
     73 H73       -82.8113   28.4268  -71.0485 H         1 UNK         0.0837 
     74 H74       -81.9067   30.4489  -73.1130 H         1 UNK         0.0685 
     75 H75       -81.3027   30.1531  -71.4974 H         1 UNK         0.0685 
     76 H76       -80.0476   30.0449  -75.0487 H         1 UNK         0.1434 
     77 H77       -76.1950   31.6047  -73.9933 H         1 UNK         0.1329 
     78 H78       -79.1610   30.9974  -70.9627 H         1 UNK         0.1335 
     79 H79       -75.7612   32.3827  -71.7743 H         1 UNK         0.0680 
     80 H80       -77.1024   32.6098  -70.6811 H         1 UNK         0.0680 
     81 H81       -74.0629   29.4556  -71.1830 H         1 UNK         0.1032 
     82 H82       -75.1544   29.8790  -72.4621 H         1 UNK         0.1032 
     83 H83       -75.7388   27.6777  -70.4278 H         1 UNK         0.0461 
     84 H84       -76.4030   27.8296  -73.9806 H         1 UNK         0.3453 
     85 H85       -78.1456   27.7504  -73.7864 H         1 UNK         0.3453 
     86 H86       -74.3717   26.3087  -71.3949 H         1 UNK         0.2984 
     87 H87       -72.5080   25.7362  -72.8193 H         1 UNK         0.0554 
     88 H88       -74.3792   24.2035  -72.6984 H         1 UNK         0.0847 
     89 H89       -73.4767   23.7188  -74.1241 H         1 UNK         0.0847 
     90 H90       -74.9640   24.6543  -74.2870 H         1 UNK         0.0847 
     91 H91       -73.0693   25.7539  -75.7156 H         1 UNK         0.3141 
     92 H92       -71.5349   28.0915  -76.7144 H         1 UNK         0.0743 
     93 H93       -69.2219   28.2902  -75.9290 H         1 UNK         0.0784 
     94 H94       -68.9133   26.5880  -76.2277 H         1 UNK         0.0784 
     95 H95       -69.2121   27.6852  -77.5760 H         1 UNK         0.0784 
     96 H96       -72.1430   26.5357  -78.1142 H         1 UNK         0.3213 
     97 H97       -70.9723   23.8088  -79.4066 H         1 UNK         0.0855 
     98 H98       -71.5007   22.1172  -77.7182 H         1 UNK         0.0814 
     99 H99       -72.8289   22.1675  -78.8645 H         1 UNK         0.0814 
    100 H100      -72.9941   22.9271  -77.2799 H         1 UNK         0.0814 
    101 H101      -73.7010   24.8444  -78.8177 H         1 UNK         0.3105 
    102 H102      -73.5710   27.2252  -81.3777 H         1 UNK         0.0547 
    103 H103      -74.0660   25.2749  -82.8594 H         1 UNK         0.0837 
    104 H104      -75.1308   24.5958  -81.6372 H         1 UNK         0.0837 
    105 H105      -75.5374   26.1237  -82.4208 H         1 UNK         0.0837 
    106 H106      -75.7704   26.2137  -79.8627 H         1 UNK         0.3020 
    107 H107      -75.1112   27.8337  -76.7980 H         1 UNK         0.1245 
    108 H108      -77.1276   28.6120  -78.9763 H         1 UNK         0.0781 
    109 H109      -76.0558   29.7105  -78.1444 H         1 UNK         0.0781 
    110 H110      -78.1451   31.3634  -76.7651 H         1 UNK         0.0836 
    111 H111      -76.5476   30.9135  -76.2052 H         1 UNK         0.0836 
    112 H112      -77.3749   26.3827  -77.6130 H         1 UNK         0.3022 
    113 H113      -77.2383   23.8102  -77.9268 H         1 UNK         0.0747 
    114 H114      -75.3408   22.4164  -77.1641 H         1 UNK         0.0793 
    115 H115      -75.6864   22.8112  -75.4856 H         1 UNK         0.0793 
    116 H116      -76.8418   21.8831  -76.4334 H         1 UNK         0.0793 
    117 H117      -77.9268   23.8556  -75.1247 H         1 UNK         0.3047 
    118 H118      -80.3851   26.3318  -75.3381 H         1 UNK         0.0822 
    119 H119      -81.6802   24.5787  -76.5235 H         1 UNK         0.0807 
    120 H120      -82.1089   24.6275  -74.8212 H         1 UNK         0.0807 
    121 H121      -81.0624   23.3468  -75.4337 H         1 UNK         0.0807 
    122 H122      -79.7886   25.9865  -73.2706 H         1 UNK         0.2946 
    123 H123      -79.3995   23.3293  -71.1850 H         1 UNK         0.1144 
    124 H124      -77.2919   24.4112  -70.2707 H         1 UNK         0.0793 
    125 H125      -76.9559   25.0407  -71.8849 H         1 UNK         0.0793 
    126 H126      -76.9944   23.3115  -71.6075 H         1 UNK         0.0793 
    127 H127      -79.0634   26.2453  -71.0044 H         1 UNK         0.2896 
@<TRIPOS>BOND
     1    1    2 1    
     2    1   67 1    
     3    1   68 1    
     4    1   69 1    
     5    2    3 2    
     6    2    4 am   BACKBONE|DICT|INTERRES
     7    4    5 1    
     8    4   70 1    
     9    5    6 1    
    10    5   65 1    
    11    5   71 1    
    12    6    7 1    
    13    6   72 1    
    14    6   73 1    
    15    7    8 1    
    16    8    9 1    
    17    8   74 1    
    18    8   75 1    
    19    9   10 ar   
    20    9   14 ar   
    21   10   11 ar   
    22   10   76 1    
    23   11   12 ar   
    24   11   48 1    
    25   12   13 ar   
    26   12   77 1    
    27   13   14 ar   
    28   13   15 1    
    29   14   78 1    
    30   15   16 1    
    31   15   79 1    
    32   15   80 1    
    33   16   17 1    
    34   17   18 1    
    35   17   81 1    
    36   17   82 1    
    37   18   19 1    
    38   18   22 1    
    39   18   83 1    
    40   19   20 am   BACKBONE|DICT|INTERRES
    41   19   21 2    
    42   20   84 1    
    43   20   85 1    
    44   22   23 am   BACKBONE|DICT|INTERRES
    45   22   86 1    
    46   23   24 2    
    47   23   25 1    
    48   25   26 1    
    49   25   27 1    
    50   25   87 1    
    51   26   88 1    
    52   26   89 1    
    53   26   90 1    
    54   27   28 am   BACKBONE|DICT|INTERRES
    55   27   91 1    
    56   28   29 2    
    57   28   30 1    
    58   30   31 1    
    59   30   32 1    
    60   30   92 1    
    61   31   93 1    
    62   31   94 1    
    63   31   95 1    
    64   32   33 am   BACKBONE|DICT|INTERRES
    65   32   96 1    
    66   33   34 2    
    67   33   35 1    
    68   35   36 1    
    69   35   37 1    
    70   35   97 1    
    71   36   98 1    
    72   36   99 1    
    73   36  100 1    
    74   37   38 am   BACKBONE|DICT|INTERRES
    75   37  101 1    
    76   38   39 2    
    77   38   40 1    
    78   40   41 1    
    79   40   42 1    
    80   40  102 1    
    81   41  103 1    
    82   41  104 1    
    83   41  105 1    
    84   42   43 am   BACKBONE|DICT|INTERRES
    85   42  106 1    
    86   43   44 2    
    87   43   45 1    
    88   45   46 1    
    89   45   49 1    
    90   45  107 1    
    91   46   47 1    
    92   46  108 1    
    93   46  109 1    
    94   47   48 1    
    95   48  110 1    
    96   48  111 1    
    97   49   50 am   BACKBONE|DICT|INTERRES
    98   49  112 1    
    99   50   51 2    
   100   50   52 1    
   101   52   53 1    
   102   52   54 1    
   103   52  113 1    
   104   53  114 1    
   105   53  115 1    
   106   53  116 1    
   107   54   55 am   BACKBONE|DICT|INTERRES
   108   54  117 1    
   109   55   56 2    
   110   55   57 1    
   111   57   58 1    
   112   57   59 1    
   113   57  118 1    
   114   58  119 1    
   115   58  120 1    
   116   58  121 1    
   117   59   60 am   BACKBONE|DICT|INTERRES
   118   59  122 1    
   119   60   61 2    
   120   60   62 1    
   121   62   63 1    
   122   62   64 1    
   123   62  123 1    
   124   63  124 1    
   125   63  125 1    
   126   63  126 1    
   127   64   65 am   BACKBONE|DICT|INTERRES
   128   64  127 1    
   129   65   66 2    
@<TRIPOS>SUBSTRUCTURE
     1 UNK         1 GROUP             0       ****    0 ROOT    
