@<TRIPOS>MOLECULE
3R135
127   129    1
SMALL
USER_CHARGES


@<TRIPOS>ATOM
      1 CA        -85.0702   27.2841  -70.3899 C.3       0 UNK        -0.1998 
      2 C         -84.5375   27.5815  -71.7835 C.2       0 UNK         0.4909 
      3 O         -85.2720   27.4394  -72.7615 O.2       0 UNK        -0.5240 
      4 N         -83.2675   27.9989  -71.8791 N.am      1 UNK        -0.4739 
      5 CA        -82.5695   28.2956  -73.1367 C.3       1 UNK         0.0864 
      6 C6        -81.2564   29.0710  -72.8613 C.3       11 UNK        -0.0881 
      7 S7        -80.5576   29.9119  -74.3233 S.3       11 UNK        -0.2682 
      8 C8        -79.3416   28.7035  -74.9418 C.3       11 UNK         0.0289 
      9 C9        -78.0621   28.6599  -74.1175 C.ar      11 UNK        -0.0687 
     10 C10       -77.9553   27.7992  -73.0220 C.ar      11 UNK        -0.0823 
     11 C11       -76.7636   27.7079  -72.2979 C.ar      11 UNK        -0.0830 
     12 C12       -75.6545   28.4539  -72.7058 C.ar      11 UNK        -0.1021 
     13 C13       -75.7404   29.3039  -73.8130 C.ar      11 UNK        -0.0753 
     14 C14       -76.9553   29.4261  -74.4949 C.ar      11 UNK        -0.0933 
     15 C15       -74.5112   30.0427  -74.3187 C.3       11 UNK         0.0166 
     16 S16       -74.2905   31.6564  -73.5136 S.3       11 UNK        -0.2615 
     17 C17       -73.2148   31.2229  -72.1034 C.3       11 UNK        -0.0865 
     18 CA        -71.7268   31.5872  -72.3638 C.3       10 UNK         0.0862 
     19 C         -70.8858   31.5379  -71.0538 C.2       10 UNK         0.5551 
     20 N         -69.7307   30.8830  -71.0253 N.am      10 UNK        -0.7319 
     21 O         -71.2788   32.1197  -70.0455 O.2       10 UNK        -0.5018 
     22 N         -71.1443   30.7805  -73.4551 N.am      10 UNK        -0.4509 
     23 C         -70.4745   31.2722  -74.5063 C.2       10 UNK         0.4899 
     24 O         -70.3339   32.4763  -74.7240 O.2       10 UNK        -0.4839 
     25 CA        -69.8131   30.2689  -75.4741 C.3       9 UNK         0.0222 
     26 CB        -68.2815   30.4124  -75.4288 C.3       9 UNK        -0.1966 
     27 N         -70.1596   28.8660  -75.2178 N.am      9 UNK        -0.4218 
     28 C         -71.2640   28.2564  -75.6671 C.2       9 UNK         0.5020 
     29 O         -72.1356   28.8203  -76.3316 O.2       9 UNK        -0.5274 
     30 CA        -71.4247   26.7806  -75.2583 C.3       8 UNK         0.0270 
     31 CB        -71.8904   26.6761  -73.7950 C.3       8 UNK        -0.1976 
     32 N         -72.3742   26.0629  -76.1131 N.am      8 UNK        -0.4313 
     33 C         -72.1374   25.6944  -77.3819 C.2       8 UNK         0.5041 
     34 O         -71.0545   25.8651  -77.9454 O.2       8 UNK        -0.5577 
     35 CA        -73.2741   24.9969  -78.1610 C.3       7 UNK         0.0284 
     36 CB        -73.0309   23.4799  -78.2244 C.3       7 UNK        -0.1958 
     37 N         -74.6035   25.2360  -77.5982 N.am      7 UNK        -0.4454 
     38 C         -75.2511   26.4078  -77.6263 C.2       7 UNK         0.5089 
     39 O         -74.8736   27.3745  -78.2886 O.2       7 UNK        -0.5125 
     40 CA        -76.5230   26.5438  -76.7633 C.3       6 UNK         0.0408 
     41 CB        -77.7644   26.6898  -77.6572 C.3       6 UNK        -0.1791 
     42 N         -76.7584   25.4781  -75.7767 N.am      6 UNK        -0.4762 
     43 C         -75.9250   25.1036  -74.7918 C.2       6 UNK         0.5007 
     44 O         -74.8030   25.5843  -74.6401 O.2       6 UNK        -0.5032 
     45 CA        -76.3758   23.9436  -73.8779 C.3       5 UNK         0.0783 
     46 C46       -77.0319   24.4211  -72.5611 C.3       11 UNK        -0.0857 
     47 S47       -75.8532   25.2218  -71.4207 S.3       11 UNK        -0.2512 
     48 C48       -76.6780   26.8074  -71.0730 C.3       11 UNK         0.0225 
     49 N         -77.2652   23.0267  -74.5921 N.am      5 UNK        -0.4615 
     50 C         -76.8551   22.0515  -75.4131 C.2       4 UNK         0.5053 
     51 O         -75.6717   21.7920  -75.6303 O.2       4 UNK        -0.5105 
     52 CA        -77.9525   21.2336  -76.1172 C.3       4 UNK         0.0263 
     53 CB        -78.3586   20.0261  -75.2570 C.3       4 UNK        -0.1981 
     54 N         -79.1412   22.0339  -76.4251 N.am      4 UNK        -0.4224 
     55 C         -79.1784   22.9960  -77.3578 C.2       3 UNK         0.4895 
     56 O         -78.2423   23.2453  -78.1165 O.2       3 UNK        -0.5091 
     57 CA        -80.4630   23.8391  -77.4504 C.3       3 UNK         0.0250 
     58 CB        -81.3955   23.2748  -78.5342 C.3       3 UNK        -0.1996 
     59 N         -81.2040   23.9620  -76.1890 N.am      3 UNK        -0.4254 
     60 C         -80.7461   24.5527  -75.0758 C.2       2 UNK         0.5004 
     61 O         -79.6025   24.9964  -74.9528 O.2       2 UNK        -0.5226 
     62 CA        -81.7106   24.5968  -73.8773 C.3       2 UNK         0.0269 
     63 CB        -81.2193   23.6495  -72.7699 C.3       2 UNK        -0.1926 
     64 N         -81.8871   25.9393  -73.3131 N.am      2 UNK        -0.4687 
     65 C         -82.3471   27.0143  -73.9740 C.2       1 UNK         0.5165 
     66 O         -82.6425   27.0100  -75.1700 O.2       1 UNK        -0.5079 
     67 H67       -84.3199   27.4604  -69.6193 H         1 UNK         0.0900 
     68 H68       -85.3860   26.2433  -70.3236 H         1 UNK         0.0900 
     69 H69       -85.9314   27.9161  -70.1748 H         1 UNK         0.0900 
     70 H70       -82.7225   28.1065  -71.0352 H         1 UNK         0.2959 
     71 H71       -83.2260   28.9463  -73.7195 H         1 UNK         0.1079 
     72 H72       -81.4579   29.8631  -72.1380 H         1 UNK         0.0837 
     73 H73       -80.5174   28.4363  -72.3793 H         1 UNK         0.0837 
     74 H74       -79.7876   27.7107  -74.9890 H         1 UNK         0.0685 
     75 H75       -79.1001   28.9664  -75.9725 H         1 UNK         0.0685 
     76 H76       -78.7962   27.1822  -72.7423 H         1 UNK         0.1434 
     77 H77       -74.7207   28.3514  -72.1721 H         1 UNK         0.1329 
     78 H78       -77.0236   30.0784  -75.3547 H         1 UNK         0.1335 
     79 H79       -73.6224   29.4306  -74.1723 H         1 UNK         0.0680 
     80 H80       -74.5894   30.1980  -75.3960 H         1 UNK         0.0680 
     81 H81       -73.3154   30.1672  -71.8516 H         1 UNK         0.1032 
     82 H82       -73.5996   31.7703  -71.2408 H         1 UNK         0.1032 
     83 H83       -71.7094   32.6399  -72.6513 H         1 UNK         0.0461 
     84 H84       -69.3774   30.4275  -71.8504 H         1 UNK         0.3453 
     85 H85       -69.1953   30.8668  -70.1713 H         1 UNK         0.3453 
     86 H86       -71.2007   29.7799  -73.3464 H         1 UNK         0.2984 
     87 H87       -70.1428   30.5324  -76.4815 H         1 UNK         0.0554 
     88 H88       -67.7994   29.7588  -76.1561 H         1 UNK         0.0847 
     89 H89       -67.8799   30.1736  -74.4433 H         1 UNK         0.0847 
     90 H90       -67.9754   31.4326  -75.6651 H         1 UNK         0.0847 
     91 H91       -69.4957   28.3294  -74.6768 H         1 UNK         0.3141 
     92 H92       -70.4526   26.2911  -75.3493 H         1 UNK         0.0743 
     93 H93       -72.8500   27.1709  -73.6408 H         1 UNK         0.0784 
     94 H94       -72.0049   25.6356  -73.4900 H         1 UNK         0.0784 
     95 H95       -71.1726   27.1330  -73.1131 H         1 UNK         0.0784 
     96 H96       -73.2989   25.9059  -75.7168 H         1 UNK         0.3213 
     97 H97       -73.2599   25.3907  -79.1796 H         1 UNK         0.0855 
     98 H98       -73.0534   23.0258  -77.2327 H         1 UNK         0.0814 
     99 H99       -72.0569   23.2583  -78.6630 H         1 UNK         0.0814 
    100 H100      -73.7819   22.9823  -78.8383 H         1 UNK         0.0814 
    101 H101      -75.0007   24.4980  -77.0346 H         1 UNK         0.3105 
    102 H102      -76.4031   27.4659  -76.1983 H         1 UNK         0.0547 
    103 H103      -77.6962   27.5882  -78.2717 H         1 UNK         0.0837 
    104 H104      -77.8706   25.8438  -78.3356 H         1 UNK         0.0837 
    105 H105      -78.6784   26.7673  -77.0697 H         1 UNK         0.0837 
    106 H106      -77.6837   25.0639  -75.7816 H         1 UNK         0.3020 
    107 H107      -75.4712   23.3917  -73.6103 H         1 UNK         0.1245 
    108 H108      -77.4440   23.5631  -72.0275 H         1 UNK         0.0781 
    109 H109      -77.8828   25.0687  -72.7671 H         1 UNK         0.0781 
    110 H110      -76.1258   27.3229  -70.2859 H         1 UNK         0.0836 
    111 H111      -77.6717   26.6148  -70.6655 H         1 UNK         0.0836 
    112 H112      -78.2543   23.2204  -74.5169 H         1 UNK         0.3022 
    113 H113      -77.5372   20.8606  -77.0561 H         1 UNK         0.0747 
    114 H114      -79.0845   19.3974  -75.7731 H         1 UNK         0.0793 
    115 H115      -77.4936   19.4006  -75.0315 H         1 UNK         0.0793 
    116 H116      -78.7951   20.3333  -74.3057 H         1 UNK         0.0793 
    117 H117      -79.9646   21.8751  -75.8633 H         1 UNK         0.3047 
    118 H118      -80.1666   24.8457  -77.7511 H         1 UNK         0.0822 
    119 H119      -82.2621   23.9184  -78.6874 H         1 UNK         0.0807 
    120 H120      -81.7567   22.2778  -78.2788 H         1 UNK         0.0807 
    121 H121      -80.8792   23.1986  -79.4924 H         1 UNK         0.0807 
    122 H122      -82.1524   23.6146  -76.1968 H         1 UNK         0.2946 
    123 H123      -82.6945   24.2563  -74.2073 H         1 UNK         0.1144 
    124 H124      -81.9312   23.5986  -71.9458 H         1 UNK         0.0793 
    125 H125      -80.2583   23.9677  -72.3635 H         1 UNK         0.0793 
    126 H126      -81.0932   22.6340  -73.1479 H         1 UNK         0.0793 
    127 H127      -81.6853   26.0401  -72.3297 H         1 UNK         0.2896 
@<TRIPOS>BOND
     1    1    2 1    
     2    1   67 1    
     3    1   68 1    
     4    1   69 1    
     5    2    3 2    
     6    2    4 am   BACKBONE|DICT|INTERRES
     7    4    5 1    
     8    4   70 1    
     9    5    6 1    
    10    5   65 1    
    11    5   71 1    
    12    6    7 1    
    13    6   72 1    
    14    6   73 1    
    15    7    8 1    
    16    8    9 1    
    17    8   74 1    
    18    8   75 1    
    19    9   10 ar   
    20    9   14 ar   
    21   10   11 ar   
    22   10   76 1    
    23   11   12 ar   
    24   11   48 1    
    25   12   13 ar   
    26   12   77 1    
    27   13   14 ar   
    28   13   15 1    
    29   14   78 1    
    30   15   16 1    
    31   15   79 1    
    32   15   80 1    
    33   16   17 1    
    34   17   18 1    
    35   17   81 1    
    36   17   82 1    
    37   18   19 1    
    38   18   22 1    
    39   18   83 1    
    40   19   20 am   BACKBONE|DICT|INTERRES
    41   19   21 2    
    42   20   84 1    
    43   20   85 1    
    44   22   23 am   BACKBONE|DICT|INTERRES
    45   22   86 1    
    46   23   24 2    
    47   23   25 1    
    48   25   26 1    
    49   25   27 1    
    50   25   87 1    
    51   26   88 1    
    52   26   89 1    
    53   26   90 1    
    54   27   28 am   BACKBONE|DICT|INTERRES
    55   27   91 1    
    56   28   29 2    
    57   28   30 1    
    58   30   31 1    
    59   30   32 1    
    60   30   92 1    
    61   31   93 1    
    62   31   94 1    
    63   31   95 1    
    64   32   33 am   BACKBONE|DICT|INTERRES
    65   32   96 1    
    66   33   34 2    
    67   33   35 1    
    68   35   36 1    
    69   35   37 1    
    70   35   97 1    
    71   36   98 1    
    72   36   99 1    
    73   36  100 1    
    74   37   38 am   BACKBONE|DICT|INTERRES
    75   37  101 1    
    76   38   39 2    
    77   38   40 1    
    78   40   41 1    
    79   40   42 1    
    80   40  102 1    
    81   41  103 1    
    82   41  104 1    
    83   41  105 1    
    84   42   43 am   BACKBONE|DICT|INTERRES
    85   42  106 1    
    86   43   44 2    
    87   43   45 1    
    88   45   46 1    
    89   45   49 1    
    90   45  107 1    
    91   46   47 1    
    92   46  108 1    
    93   46  109 1    
    94   47   48 1    
    95   48  110 1    
    96   48  111 1    
    97   49   50 am   BACKBONE|DICT|INTERRES
    98   49  112 1    
    99   50   51 2    
   100   50   52 1    
   101   52   53 1    
   102   52   54 1    
   103   52  113 1    
   104   53  114 1    
   105   53  115 1    
   106   53  116 1    
   107   54   55 am   BACKBONE|DICT|INTERRES
   108   54  117 1    
   109   55   56 2    
   110   55   57 1    
   111   57   58 1    
   112   57   59 1    
   113   57  118 1    
   114   58  119 1    
   115   58  120 1    
   116   58  121 1    
   117   59   60 am   BACKBONE|DICT|INTERRES
   118   59  122 1    
   119   60   61 2    
   120   60   62 1    
   121   62   63 1    
   122   62   64 1    
   123   62  123 1    
   124   63  124 1    
   125   63  125 1    
   126   63  126 1    
   127   64   65 am   BACKBONE|DICT|INTERRES
   128   64  127 1    
   129   65   66 2    
@<TRIPOS>SUBSTRUCTURE
     1 UNK         1 GROUP             0       ****    0 ROOT    
