@<TRIPOS>MOLECULE
3R135
127   129    1
SMALL
USER_CHARGES


@<TRIPOS>ATOM
      1 CA        -81.9896   26.4964  -70.8489 C.3       0 UNK        -0.1998 
      2 C         -81.5039   26.9760  -72.2078 C.2       0 UNK         0.4909 
      3 O         -80.4216   26.5867  -72.6370 O.2       0 UNK        -0.5240 
      4 N         -82.3035   27.8038  -72.8916 N.am      1 UNK        -0.4739 
      5 CA        -82.0523   28.4352  -74.1978 C.3       1 UNK         0.0864 
      6 C6        -80.8737   29.4692  -74.1772 C.3       11 UNK        -0.0881 
      7 S7        -79.4293   29.1488  -75.2503 S.3       11 UNK        -0.2682 
      8 C8        -78.1828   30.3180  -74.6063 C.3       11 UNK         0.0289 
      9 C9        -77.6254   30.0127  -73.2144 C.ar      11 UNK        -0.0687 
     10 C10       -77.8017   28.7766  -72.5779 C.ar      11 UNK        -0.0823 
     11 C11       -77.2888   28.5506  -71.2980 C.ar      11 UNK        -0.0830 
     12 C12       -76.5703   29.5629  -70.6574 C.ar      11 UNK        -0.1021 
     13 C13       -76.3688   30.7952  -71.2840 C.ar      11 UNK        -0.0753 
     14 C14       -76.9009   31.0129  -72.5580 C.ar      11 UNK        -0.0933 
     15 C15       -75.6043   31.9028  -70.5724 C.3       11 UNK         0.0166 
     16 S16       -73.9531   32.1810  -71.2873 S.3       11 UNK        -0.2615 
     17 C17       -73.0735   30.6470  -70.8303 C.3       11 UNK        -0.0865 
     18 CA        -72.1178   30.1491  -71.9457 C.3       10 UNK         0.0862 
     19 C         -71.2838   28.9422  -71.4482 C.2       10 UNK         0.5551 
     20 N         -70.1279   29.1922  -70.8492 N.am      10 UNK        -0.7319 
     21 O         -71.6895   27.7874  -71.5671 O.2       10 UNK        -0.5018 
     22 N         -72.8367   29.7749  -73.1695 N.am      10 UNK        -0.4509 
     23 C         -72.7963   30.4357  -74.3312 C.2       10 UNK         0.4899 
     24 O         -72.2292   31.5182  -74.4929 O.2       10 UNK        -0.4839 
     25 CA        -73.4889   29.7402  -75.5187 C.3       9 UNK         0.0222 
     26 CB        -73.2704   30.4663  -76.8626 C.3       9 UNK        -0.1966 
     27 N         -73.1208   28.3232  -75.6271 N.am      9 UNK        -0.4218 
     28 C         -71.8932   27.8020  -75.7874 C.2       9 UNK         0.5020 
     29 O         -70.8618   28.4675  -75.8912 O.2       9 UNK        -0.5274 
     30 CA        -71.7987   26.2671  -75.8448 C.3       8 UNK         0.0270 
     31 CB        -71.8476   25.6672  -74.4302 C.3       8 UNK        -0.1976 
     32 N         -72.8475   25.6662  -76.6716 N.am      8 UNK        -0.4313 
     33 C         -72.9287   25.7843  -78.0050 C.2       8 UNK         0.5041 
     34 O         -72.0755   26.3388  -78.6992 O.2       8 UNK        -0.5577 
     35 CA        -74.1856   25.2048  -78.6789 C.3       7 UNK         0.0284 
     36 CB        -74.0511   23.6887  -78.8915 C.3       7 UNK        -0.1958 
     37 N         -75.4077   25.5021  -77.9268 N.am      7 UNK        -0.4454 
     38 C         -75.9043   26.7370  -77.7615 C.2       7 UNK         0.5089 
     39 O         -75.4360   27.7431  -78.2936 O.2       7 UNK        -0.5125 
     40 CA        -77.1198   26.8811  -76.8348 C.3       6 UNK         0.0408 
     41 CB        -78.4178   26.6665  -77.6278 C.3       6 UNK        -0.1791 
     42 N         -77.0682   25.9782  -75.6798 N.am      6 UNK        -0.4762 
     43 C         -76.1773   26.0873  -74.6806 C.2       6 UNK         0.5007 
     44 O         -75.3547   26.9982  -74.6006 O.2       6 UNK        -0.5032 
     45 CA        -76.1310   24.9426  -73.6486 C.3       5 UNK         0.0783 
     46 C46       -77.1145   25.1516  -72.4711 C.3       11 UNK        -0.0857 
     47 S47       -76.3129   25.9659  -71.0483 S.3       11 UNK        -0.2512 
     48 C48       -77.5370   27.2288  -70.5873 C.3       11 UNK         0.0225 
     49 N         -76.3120   23.6394  -74.2906 N.am      5 UNK        -0.4615 
     50 C         -75.4020   23.0741  -75.0946 C.2       4 UNK         0.5053 
     51 O         -74.3105   23.5819  -75.3473 O.2       4 UNK        -0.5105 
     52 CA        -75.7777   21.7387  -75.7567 C.3       4 UNK         0.0263 
     53 CB        -75.2855   20.5605  -74.9020 C.3       4 UNK        -0.1981 
     54 N         -77.2126   21.5908  -76.0118 N.am      4 UNK        -0.4224 
     55 C         -77.9411   22.3811  -76.8129 C.2       3 UNK         0.4895 
     56 O         -77.4693   23.3353  -77.4348 O.2       3 UNK        -0.5091 
     57 CA        -79.4385   22.0409  -76.9580 C.3       3 UNK         0.0250 
     58 CB        -79.9573   21.0227  -75.9150 C.3       3 UNK        -0.1996 
     59 N         -80.3096   23.2224  -76.9716 N.am      3 UNK        -0.4254 
     60 C         -80.4254   24.1657  -76.0246 C.2       2 UNK         0.5004 
     61 O         -79.6988   24.2488  -75.0303 O.2       2 UNK        -0.5226 
     62 CA        -81.5829   25.1567  -76.2281 C.3       2 UNK         0.0269 
     63 CB        -82.9458   24.4411  -76.1183 C.3       2 UNK        -0.1926 
     64 N         -81.5294   26.2409  -75.2477 N.am      2 UNK        -0.4687 
     65 C         -82.0950   27.4465  -75.3935 C.2       1 UNK         0.5165 
     66 O         -82.6889   27.7852  -76.4194 O.2       1 UNK        -0.5079 
     67 H67       -81.2880   26.8015  -70.0730 H         1 UNK         0.0900 
     68 H68       -82.9701   26.9008  -70.5986 H         1 UNK         0.0900 
     69 H69       -82.0573   25.4089  -70.8387 H         1 UNK         0.0900 
     70 H70       -83.1974   28.0423  -72.4841 H         1 UNK         0.2959 
     71 H71       -82.9539   29.0344  -74.3393 H         1 UNK         0.1079 
     72 H72       -81.2602   30.4451  -74.4751 H         1 UNK         0.0837 
     73 H73       -80.5169   29.6161  -73.1569 H         1 UNK         0.0837 
     74 H74       -78.6167   31.3191  -74.6146 H         1 UNK         0.0685 
     75 H75       -77.3473   30.3369  -75.3073 H         1 UNK         0.0685 
     76 H76       -78.3471   27.9849  -73.0686 H         1 UNK         0.1434 
     77 H77       -76.1730   29.3926  -69.6660 H         1 UNK         0.1329 
     78 H78       -76.7484   31.9696  -73.0390 H         1 UNK         0.1335 
     79 H79       -76.1751   32.8300  -70.6393 H         1 UNK         0.0680 
     80 H80       -75.5023   31.6852  -69.5079 H         1 UNK         0.0680 
     81 H81       -73.7897   29.8645  -70.5775 H         1 UNK         0.1032 
     82 H82       -72.5166   30.8514  -69.9138 H         1 UNK         0.1032 
     83 H83       -71.4135   30.9524  -72.1715 H         1 UNK         0.0461 
     84 H84       -69.7895   30.1355  -70.7381 H         1 UNK         0.3453 
     85 H85       -69.5780   28.4199  -70.5064 H         1 UNK         0.3453 
     86 H86       -73.2833   28.8684  -73.1399 H         1 UNK         0.2984 
     87 H87       -74.5587   29.7596  -75.3041 H         1 UNK         0.0554 
     88 H88       -73.6441   31.4899  -76.8186 H         1 UNK         0.0847 
     89 H89       -73.7976   29.9633  -77.6733 H         1 UNK         0.0847 
     90 H90       -72.2143   30.5158  -77.1297 H         1 UNK         0.0847 
     91 H91       -73.8940   27.6790  -75.4682 H         1 UNK         0.3141 
     92 H92       -70.8345   26.0088  -76.2880 H         1 UNK         0.0743 
     93 H93       -71.0538   26.0783  -73.8050 H         1 UNK         0.0784 
     94 H94       -72.7946   25.8781  -73.9320 H         1 UNK         0.0784 
     95 H95       -71.7160   24.5852  -74.4529 H         1 UNK         0.0784 
     96 H96       -73.5466   25.1056  -76.1898 H         1 UNK         0.3213 
     97 H97       -74.2823   25.6742  -79.6604 H         1 UNK         0.0855 
     98 H98       -73.8656   23.1618  -77.9565 H         1 UNK         0.0814 
     99 H99       -73.2156   23.4660  -79.5564 H         1 UNK         0.0814 
    100 H100      -74.9487   23.2671  -79.3445 H         1 UNK         0.0814 
    101 H101      -75.9109   24.7229  -77.5153 H         1 UNK         0.3105 
    102 H102      -77.1147   27.9044  -76.4567 H         1 UNK         0.0547 
    103 H103      -78.4788   25.6651  -78.0529 H         1 UNK         0.0837 
    104 H104      -78.4873   27.3746  -78.4545 H         1 UNK         0.0837 
    105 H105      -79.2932   26.8220  -77.0012 H         1 UNK         0.0837 
    106 H106      -77.7117   25.1953  -75.6767 H         1 UNK         0.3020 
    107 H107      -75.1149   24.9376  -73.2457 H         1 UNK         0.1245 
    108 H108      -77.4802   24.1919  -72.1027 H         1 UNK         0.0781 
    109 H109      -78.0064   25.6930  -72.7867 H         1 UNK         0.0781 
    110 H110      -77.4872   27.3761  -69.5075 H         1 UNK         0.0836 
    111 H111      -78.5465   26.8693  -70.7875 H         1 UNK         0.0836 
    112 H112      -77.2054   23.1860  -74.1632 H         1 UNK         0.3022 
    113 H113      -75.2684   21.6950  -76.7209 H         1 UNK         0.0747 
    114 H114      -75.4610   19.6069  -75.4002 H         1 UNK         0.0793 
    115 H115      -74.2125   20.6344  -74.7182 H         1 UNK         0.0793 
    116 H116      -75.7808   20.5299  -73.9306 H         1 UNK         0.0793 
    117 H117      -77.6799   20.8285  -75.5425 H         1 UNK         0.3047 
    118 H118      -79.5391   21.5818  -77.9425 H         1 UNK         0.0822 
    119 H119      -81.0187   20.8216  -76.0615 H         1 UNK         0.0807 
    120 H120      -79.8326   21.3852  -74.8935 H         1 UNK         0.0807 
    121 H121      -79.4459   20.0629  -75.9985 H         1 UNK         0.0807 
    122 H122      -80.9249   23.2825  -77.7708 H         1 UNK         0.2946 
    123 H123      -81.4778   25.5823  -77.2287 H         1 UNK         0.1144 
    124 H124      -83.7735   25.1274  -76.2976 H         1 UNK         0.0793 
    125 H125      -83.0862   24.0017  -75.1298 H         1 UNK         0.0793 
    126 H126      -83.0392   23.6371  -76.8490 H         1 UNK         0.0793 
    127 H127      -80.9898   26.0552  -74.4035 H         1 UNK         0.2896 
@<TRIPOS>BOND
     1    1    2 1    
     2    1   67 1    
     3    1   68 1    
     4    1   69 1    
     5    2    3 2    
     6    2    4 am   BACKBONE|DICT|INTERRES
     7    4    5 1    
     8    4   70 1    
     9    5    6 1    
    10    5   65 1    
    11    5   71 1    
    12    6    7 1    
    13    6   72 1    
    14    6   73 1    
    15    7    8 1    
    16    8    9 1    
    17    8   74 1    
    18    8   75 1    
    19    9   10 ar   
    20    9   14 ar   
    21   10   11 ar   
    22   10   76 1    
    23   11   12 ar   
    24   11   48 1    
    25   12   13 ar   
    26   12   77 1    
    27   13   14 ar   
    28   13   15 1    
    29   14   78 1    
    30   15   16 1    
    31   15   79 1    
    32   15   80 1    
    33   16   17 1    
    34   17   18 1    
    35   17   81 1    
    36   17   82 1    
    37   18   19 1    
    38   18   22 1    
    39   18   83 1    
    40   19   20 am   BACKBONE|DICT|INTERRES
    41   19   21 2    
    42   20   84 1    
    43   20   85 1    
    44   22   23 am   BACKBONE|DICT|INTERRES
    45   22   86 1    
    46   23   24 2    
    47   23   25 1    
    48   25   26 1    
    49   25   27 1    
    50   25   87 1    
    51   26   88 1    
    52   26   89 1    
    53   26   90 1    
    54   27   28 am   BACKBONE|DICT|INTERRES
    55   27   91 1    
    56   28   29 2    
    57   28   30 1    
    58   30   31 1    
    59   30   32 1    
    60   30   92 1    
    61   31   93 1    
    62   31   94 1    
    63   31   95 1    
    64   32   33 am   BACKBONE|DICT|INTERRES
    65   32   96 1    
    66   33   34 2    
    67   33   35 1    
    68   35   36 1    
    69   35   37 1    
    70   35   97 1    
    71   36   98 1    
    72   36   99 1    
    73   36  100 1    
    74   37   38 am   BACKBONE|DICT|INTERRES
    75   37  101 1    
    76   38   39 2    
    77   38   40 1    
    78   40   41 1    
    79   40   42 1    
    80   40  102 1    
    81   41  103 1    
    82   41  104 1    
    83   41  105 1    
    84   42   43 am   BACKBONE|DICT|INTERRES
    85   42  106 1    
    86   43   44 2    
    87   43   45 1    
    88   45   46 1    
    89   45   49 1    
    90   45  107 1    
    91   46   47 1    
    92   46  108 1    
    93   46  109 1    
    94   47   48 1    
    95   48  110 1    
    96   48  111 1    
    97   49   50 am   BACKBONE|DICT|INTERRES
    98   49  112 1    
    99   50   51 2    
   100   50   52 1    
   101   52   53 1    
   102   52   54 1    
   103   52  113 1    
   104   53  114 1    
   105   53  115 1    
   106   53  116 1    
   107   54   55 am   BACKBONE|DICT|INTERRES
   108   54  117 1    
   109   55   56 2    
   110   55   57 1    
   111   57   58 1    
   112   57   59 1    
   113   57  118 1    
   114   58  119 1    
   115   58  120 1    
   116   58  121 1    
   117   59   60 am   BACKBONE|DICT|INTERRES
   118   59  122 1    
   119   60   61 2    
   120   60   62 1    
   121   62   63 1    
   122   62   64 1    
   123   62  123 1    
   124   63  124 1    
   125   63  125 1    
   126   63  126 1    
   127   64   65 am   BACKBONE|DICT|INTERRES
   128   64  127 1    
   129   65   66 2    
@<TRIPOS>SUBSTRUCTURE
     1 UNK         1 GROUP             0       ****    0 ROOT    
