@<TRIPOS>MOLECULE
3R135
127   129    1
SMALL
USER_CHARGES


@<TRIPOS>ATOM
      1 CA        -79.2689   30.0933  -77.7464 C.3       0 UNK        -0.1998 
      2 C         -80.2469   29.4866  -76.7500 C.2       0 UNK         0.4909 
      3 O         -81.4567   29.6241  -76.9341 O.2       0 UNK        -0.5240 
      4 N         -79.7179   28.8352  -75.7029 N.am      1 UNK        -0.4739 
      5 CA        -80.4270   28.1566  -74.6053 C.3       1 UNK         0.0864 
      6 C6        -81.4175   29.0827  -73.8361 C.3       11 UNK        -0.0881 
      7 S7        -80.6513   30.6132  -73.1926 S.3       11 UNK        -0.2682 
      8 C8        -80.6203   30.3115  -71.3970 C.3       11 UNK         0.0289 
      9 C9        -79.4264   29.4594  -70.9960 C.ar      11 UNK        -0.0687 
     10 C10       -79.4996   28.0665  -71.0615 C.ar      11 UNK        -0.0823 
     11 C11       -78.3954   27.2833  -70.7215 C.ar      11 UNK        -0.0830 
     12 C12       -77.2318   27.9009  -70.2527 C.ar      11 UNK        -0.1021 
     13 C13       -77.1337   29.2978  -70.1979 C.ar      11 UNK        -0.0753 
     14 C14       -78.2414   30.0665  -70.5695 C.ar      11 UNK        -0.0933 
     15 C15       -75.8610   30.0209  -69.7481 C.3       11 UNK         0.0166 
     16 S16       -74.3128   29.0545  -69.8564 S.3       11 UNK        -0.2615 
     17 C17       -74.1599   28.7565  -71.6527 C.3       11 UNK        -0.0865 
     18 CA        -73.0682   29.6153  -72.3371 C.3       10 UNK         0.0862 
     19 C         -71.6372   29.1975  -71.8964 C.2       10 UNK         0.5551 
     20 N         -70.9436   30.0372  -71.1401 N.am      10 UNK        -0.7319 
     21 O         -71.1716   28.1036  -72.2093 O.2       10 UNK        -0.5018 
     22 N         -73.2150   29.5403  -73.7951 N.am      10 UNK        -0.4509 
     23 C         -72.5862   30.3281  -74.6756 C.2       10 UNK         0.4899 
     24 O         -71.9115   31.3107  -74.3627 O.2       10 UNK        -0.4839 
     25 CA        -72.7399   29.9241  -76.1536 C.3       9 UNK         0.0222 
     26 CB        -71.9247   30.8080  -77.1212 C.3       9 UNK        -0.1966 
     27 N         -72.4455   28.5008  -76.3556 N.am      9 UNK        -0.4218 
     28 C         -71.2871   27.8581  -76.1324 C.2       9 UNK         0.5020 
     29 O         -70.2401   28.4135  -75.7973 O.2       9 UNK        -0.5274 
     30 CA        -71.2911   26.3248  -76.2975 C.3       8 UNK         0.0270 
     31 CB        -71.3552   25.6461  -74.9200 C.3       8 UNK        -0.1976 
     32 N         -72.3910   25.8256  -77.1277 N.am      8 UNK        -0.4313 
     33 C         -72.4932   26.0131  -78.4509 C.2       8 UNK         0.5041 
     34 O         -71.6260   26.5530  -79.1385 O.2       8 UNK        -0.5577 
     35 CA        -73.8039   25.5559  -79.1093 C.3       7 UNK         0.0284 
     36 CB        -73.7412   24.0659  -79.4838 C.3       7 UNK        -0.1958 
     37 N         -74.9677   25.8043  -78.2542 N.am      7 UNK        -0.4454 
     38 C         -75.4727   27.0171  -77.9867 C.2       7 UNK         0.5089 
     39 O         -75.0205   28.0676  -78.4396 O.2       7 UNK        -0.5125 
     40 CA        -76.6761   27.0622  -77.0328 C.3       6 UNK         0.0408 
     41 CB        -77.9486   26.6459  -77.7876 C.3       6 UNK        -0.1791 
     42 N         -76.4942   26.2009  -75.8624 N.am      6 UNK        -0.4762 
     43 C         -75.5823   26.4005  -74.8956 C.2       6 UNK         0.5007 
     44 O         -74.8570   27.3948  -74.8397 O.2       6 UNK        -0.5032 
     45 CA        -75.3996   25.2857  -73.8387 C.3       5 UNK         0.0783 
     46 C46       -76.1678   25.5977  -72.5323 C.3       11 UNK        -0.0857 
     47 S47       -77.9723   25.3016  -72.5980 S.3       11 UNK        -0.2512 
     48 C48       -78.4499   25.7735  -70.9018 C.3       11 UNK         0.0225 
     49 N         -75.7103   23.9478  -74.3405 N.am      5 UNK        -0.4615 
     50 C         -75.1643   23.3615  -75.4121 C.2       4 UNK         0.5053 
     51 O         -74.1932   23.8199  -76.0145 O.2       4 UNK        -0.5105 
     52 CA        -75.8616   22.0953  -75.9475 C.3       4 UNK         0.0263 
     53 CB        -75.0242   20.8490  -75.6210 C.3       4 UNK        -0.1981 
     54 N         -77.2385   21.8941  -75.4656 N.am      4 UNK        -0.4224 
     55 C         -78.2640   22.7509  -75.6017 C.2       3 UNK         0.4895 
     56 O         -78.1658   23.8427  -76.1652 O.2       3 UNK        -0.5091 
     57 CA        -79.6043   22.3391  -74.9739 C.3       3 UNK         0.0250 
     58 CB        -79.4482   21.4827  -73.6977 C.3       3 UNK        -0.1996 
     59 N         -80.3972   23.5299  -74.6611 N.am      3 UNK        -0.4254 
     60 C         -81.7320   23.5933  -74.7214 C.2       2 UNK         0.5004 
     61 O         -82.4382   22.6593  -75.1059 O.2       2 UNK        -0.5226 
     62 CA        -82.4203   24.8844  -74.2416 C.3       2 UNK         0.0269 
     63 CB        -83.1542   24.6294  -72.9134 C.3       2 UNK        -0.1926 
     64 N         -81.5321   26.0381  -74.0605 N.am      2 UNK        -0.4687 
     65 C         -81.1298   26.8484  -75.0492 C.2       1 UNK         0.5165 
     66 O         -81.3305   26.5983  -76.2394 O.2       1 UNK        -0.5079 
     67 H67       -79.4646   31.1590  -77.8607 H         1 UNK         0.0900 
     68 H68       -78.2330   29.9748  -77.4311 H         1 UNK         0.0900 
     69 H69       -79.3852   29.6204  -78.7208 H         1 UNK         0.0900 
     70 H70       -78.7125   28.7771  -75.6379 H         1 UNK         0.2959 
     71 H71       -79.6415   27.8542  -73.9110 H         1 UNK         0.1079 
     72 H72       -82.2459   29.3761  -74.4825 H         1 UNK         0.0837 
     73 H73       -81.8854   28.5505  -73.0074 H         1 UNK         0.0837 
     74 H74       -80.5750   31.2743  -70.8857 H         1 UNK         0.0685 
     75 H75       -81.5519   29.8453  -71.0731 H         1 UNK         0.0685 
     76 H76       -80.4086   27.5915  -71.3990 H         1 UNK         0.1434 
     77 H77       -76.3915   27.2846  -69.9669 H         1 UNK         0.1329 
     78 H78       -78.1810   31.1458  -70.5301 H         1 UNK         0.1335 
     79 H79       -75.7301   30.9327  -70.3334 H         1 UNK         0.0680 
     80 H80       -75.9950   30.3357  -68.7125 H         1 UNK         0.0680 
     81 H81       -73.9564   27.6958  -71.8088 H         1 UNK         0.1032 
     82 H82       -75.1254   28.9475  -72.1239 H         1 UNK         0.1032 
     83 H83       -73.2358   30.6567  -72.0540 H         1 UNK         0.0461 
     84 H84       -70.0195   29.7748  -70.8355 H         1 UNK         0.3453 
     85 H85       -71.3261   30.9305  -70.8721 H         1 UNK         0.3453 
     86 H86       -73.7430   28.7486  -74.1540 H         1 UNK         0.2984 
     87 H87       -73.7949   30.0529  -76.4007 H         1 UNK         0.0554 
     88 H88       -72.2316   31.8518  -77.0461 H         1 UNK         0.0847 
     89 H89       -72.0719   30.5003  -78.1565 H         1 UNK         0.0847 
     90 H90       -70.8561   30.7692  -76.9081 H         1 UNK         0.0847 
     91 H91       -73.2449   27.9332  -76.6037 H         1 UNK         0.3141 
     92 H92       -70.3518   26.0411  -76.7769 H         1 UNK         0.0743 
     93 H93       -72.2418   25.9516  -74.3653 H         1 UNK         0.0784 
     94 H94       -71.3658   24.5593  -75.0067 H         1 UNK         0.0784 
     95 H95       -70.4897   25.9171  -74.3135 H         1 UNK         0.0784 
     96 H96       -73.1148   25.2820  -76.6630 H         1 UNK         0.3213 
     97 H97       -73.9310   26.1321  -80.0287 H         1 UNK         0.0855 
     98 H98       -73.6124   23.4290  -78.6082 H         1 UNK         0.0814 
     99 H99       -72.9022   23.8699  -80.1529 H         1 UNK         0.0814 
    100 H100      -74.6468   23.7478  -80.0005 H         1 UNK         0.0814 
    101 H101      -75.3754   25.0029  -77.7944 H         1 UNK         0.3105 
    102 H102      -76.7959   28.0884  -76.6812 H         1 UNK         0.0547 
    103 H103      -78.1633   27.3352  -78.6047 H         1 UNK         0.0837 
    104 H104      -77.8571   25.6494  -78.2213 H         1 UNK         0.0837 
    105 H105      -78.8174   26.6317  -77.1330 H         1 UNK         0.0837 
    106 H106      -77.0555   25.3519  -75.8379 H         1 UNK         0.3020 
    107 H107      -74.3361   25.2809  -73.5944 H         1 UNK         0.1245 
    108 H108      -75.9953   26.6320  -72.2431 H         1 UNK         0.0781 
    109 H109      -75.7599   24.9906  -71.7226 H         1 UNK         0.0781 
    110 H110      -77.8006   25.2745  -70.1807 H         1 UNK         0.0836 
    111 H111      -79.4594   25.4104  -70.7033 H         1 UNK         0.0836 
    112 H112      -76.5110   23.5045  -73.9157 H         1 UNK         0.3022 
    113 H113      -75.9111   22.1994  -77.0332 H         1 UNK         0.0747 
    114 H114      -75.4424   19.9555  -76.0851 H         1 UNK         0.0793 
    115 H115      -74.0036   20.9552  -75.9923 H         1 UNK         0.0793 
    116 H116      -74.9630   20.6740  -74.5460 H         1 UNK         0.0793 
    117 H117      -77.4134   21.0255  -74.9809 H         1 UNK         0.3047 
    118 H118      -80.1226   21.7479  -75.7320 H         1 UNK         0.0822 
    119 H119      -78.9743   20.5234  -73.9074 H         1 UNK         0.0807 
    120 H120      -80.4186   21.2572  -73.2546 H         1 UNK         0.0807 
    121 H121      -78.8525   21.9939  -72.9398 H         1 UNK         0.0807 
    122 H122      -79.8744   24.3562  -74.4038 H         1 UNK         0.2946 
    123 H123      -83.1685   25.1384  -74.9966 H         1 UNK         0.1144 
    124 H124      -83.7225   25.5048  -72.5982 H         1 UNK         0.0793 
    125 H125      -82.4607   24.3705  -72.1122 H         1 UNK         0.0793 
    126 H126      -83.8630   23.8054  -73.0083 H         1 UNK         0.0793 
    127 H127      -81.3064   26.2747  -73.1062 H         1 UNK         0.2896 
@<TRIPOS>BOND
     1    1    2 1    
     2    1   67 1    
     3    1   68 1    
     4    1   69 1    
     5    2    3 2    
     6    2    4 am   BACKBONE|DICT|INTERRES
     7    4    5 1    
     8    4   70 1    
     9    5    6 1    
    10    5   65 1    
    11    5   71 1    
    12    6    7 1    
    13    6   72 1    
    14    6   73 1    
    15    7    8 1    
    16    8    9 1    
    17    8   74 1    
    18    8   75 1    
    19    9   10 ar   
    20    9   14 ar   
    21   10   11 ar   
    22   10   76 1    
    23   11   12 ar   
    24   11   48 1    
    25   12   13 ar   
    26   12   77 1    
    27   13   14 ar   
    28   13   15 1    
    29   14   78 1    
    30   15   16 1    
    31   15   79 1    
    32   15   80 1    
    33   16   17 1    
    34   17   18 1    
    35   17   81 1    
    36   17   82 1    
    37   18   19 1    
    38   18   22 1    
    39   18   83 1    
    40   19   20 am   BACKBONE|DICT|INTERRES
    41   19   21 2    
    42   20   84 1    
    43   20   85 1    
    44   22   23 am   BACKBONE|DICT|INTERRES
    45   22   86 1    
    46   23   24 2    
    47   23   25 1    
    48   25   26 1    
    49   25   27 1    
    50   25   87 1    
    51   26   88 1    
    52   26   89 1    
    53   26   90 1    
    54   27   28 am   BACKBONE|DICT|INTERRES
    55   27   91 1    
    56   28   29 2    
    57   28   30 1    
    58   30   31 1    
    59   30   32 1    
    60   30   92 1    
    61   31   93 1    
    62   31   94 1    
    63   31   95 1    
    64   32   33 am   BACKBONE|DICT|INTERRES
    65   32   96 1    
    66   33   34 2    
    67   33   35 1    
    68   35   36 1    
    69   35   37 1    
    70   35   97 1    
    71   36   98 1    
    72   36   99 1    
    73   36  100 1    
    74   37   38 am   BACKBONE|DICT|INTERRES
    75   37  101 1    
    76   38   39 2    
    77   38   40 1    
    78   40   41 1    
    79   40   42 1    
    80   40  102 1    
    81   41  103 1    
    82   41  104 1    
    83   41  105 1    
    84   42   43 am   BACKBONE|DICT|INTERRES
    85   42  106 1    
    86   43   44 2    
    87   43   45 1    
    88   45   46 1    
    89   45   49 1    
    90   45  107 1    
    91   46   47 1    
    92   46  108 1    
    93   46  109 1    
    94   47   48 1    
    95   48  110 1    
    96   48  111 1    
    97   49   50 am   BACKBONE|DICT|INTERRES
    98   49  112 1    
    99   50   51 2    
   100   50   52 1    
   101   52   53 1    
   102   52   54 1    
   103   52  113 1    
   104   53  114 1    
   105   53  115 1    
   106   53  116 1    
   107   54   55 am   BACKBONE|DICT|INTERRES
   108   54  117 1    
   109   55   56 2    
   110   55   57 1    
   111   57   58 1    
   112   57   59 1    
   113   57  118 1    
   114   58  119 1    
   115   58  120 1    
   116   58  121 1    
   117   59   60 am   BACKBONE|DICT|INTERRES
   118   59  122 1    
   119   60   61 2    
   120   60   62 1    
   121   62   63 1    
   122   62   64 1    
   123   62  123 1    
   124   63  124 1    
   125   63  125 1    
   126   63  126 1    
   127   64   65 am   BACKBONE|DICT|INTERRES
   128   64  127 1    
   129   65   66 2    
@<TRIPOS>SUBSTRUCTURE
     1 UNK         1 GROUP             0       ****    0 ROOT    
