@<TRIPOS>MOLECULE
3R135
127   129    1
SMALL
USER_CHARGES


@<TRIPOS>ATOM
      1 CA        -84.3337   26.7733  -71.5238 C.3       0 UNK        -0.1998 
      2 C         -82.9044   27.2917  -71.3961 C.2       0 UNK         0.4909 
      3 O         -82.3075   27.1703  -70.3288 O.2       0 UNK        -0.5240 
      4 N         -82.3068   27.8754  -72.4439 N.am      1 UNK        -0.4739 
      5 CA        -82.8424   28.0566  -73.8003 C.3       1 UNK         0.0864 
      6 C6        -82.1589   29.2545  -74.5126 C.3       11 UNK        -0.0881 
      7 S7        -80.3509   29.0696  -74.7068 S.3       11 UNK        -0.2682 
      8 C8        -79.7072   30.0278  -73.3001 C.3       11 UNK         0.0289 
      9 C9        -78.4624   29.3589  -72.7413 C.ar      11 UNK        -0.0687 
     10 C10       -78.5839   28.3498  -71.7814 C.ar      11 UNK        -0.0823 
     11 C11       -77.4525   27.6901  -71.2960 C.ar      11 UNK        -0.0830 
     12 C12       -76.1898   28.0603  -71.7664 C.ar      11 UNK        -0.1021 
     13 C13       -76.0532   29.0690  -72.7247 C.ar      11 UNK        -0.0753 
     14 C14       -77.1938   29.7206  -73.2047 C.ar      11 UNK        -0.0933 
     15 C15       -74.6803   29.3979  -73.2898 C.3       11 UNK         0.0166 
     16 S16       -73.5199   29.9611  -72.0000 S.3       11 UNK        -0.2615 
     17 C17       -73.1103   31.6520  -72.5638 C.3       11 UNK        -0.0865 
     18 CA        -71.8309   31.7175  -73.4416 C.3       10 UNK         0.0862 
     19 C         -70.5250   31.5279  -72.6113 C.2       10 UNK         0.5551 
     20 N         -69.6861   30.5358  -72.8894 N.am      10 UNK        -0.7319 
     21 O         -70.2612   32.3122  -71.7030 O.2       10 UNK        -0.5018 
     22 N         -71.9515   30.8355  -74.6091 N.am      10 UNK        -0.4509 
     23 C         -71.2809   30.9601  -75.7581 C.2       10 UNK         0.4899 
     24 O         -70.5432   31.9109  -76.0218 O.2       10 UNK        -0.4839 
     25 CA        -71.4776   29.8216  -76.7790 C.3       9 UNK         0.0222 
     26 CB        -70.3168   29.7252  -77.7913 C.3       9 UNK        -0.1966 
     27 N         -71.7370   28.5089  -76.1669 N.am      9 UNK        -0.4218 
     28 C         -70.9345   27.8275  -75.3293 C.2       9 UNK         0.5020 
     29 O         -69.8848   28.2852  -74.8747 O.2       9 UNK        -0.5274 
     30 CA        -71.3615   26.4048  -74.9063 C.3       8 UNK         0.0270 
     31 CB        -71.7362   26.3700  -73.4152 C.3       8 UNK        -0.1976 
     32 N         -72.4646   25.8526  -75.7004 N.am      8 UNK        -0.4313 
     33 C         -72.3640   25.4903  -76.9899 C.2       8 UNK         0.5041 
     34 O         -71.2940   25.4583  -77.5992 O.2       8 UNK        -0.5577 
     35 CA        -73.6579   25.1401  -77.7554 C.3       7 UNK         0.0284 
     36 CB        -73.7699   23.6183  -77.9430 C.3       7 UNK        -0.1958 
     37 N         -74.8987   25.6353  -77.1509 N.am      7 UNK        -0.4454 
     38 C         -75.1790   26.9033  -76.8158 C.2       7 UNK         0.5089 
     39 O         -74.4299   27.8554  -77.0377 O.2       7 UNK        -0.5125 
     40 CA        -76.4824   27.1354  -76.0314 C.3       6 UNK         0.0408 
     41 CB        -77.6266   27.4588  -77.0015 C.3       6 UNK        -0.1791 
     42 N         -76.8701   26.0120  -75.1665 N.am      6 UNK        -0.4762 
     43 C         -76.1056   25.4509  -74.2130 C.2       6 UNK         0.5007 
     44 O         -74.9506   25.8026  -73.9681 O.2       6 UNK        -0.5032 
     45 CA        -76.6982   24.2355  -73.4756 C.3       5 UNK         0.0783 
     46 C46       -77.6961   24.6301  -72.3571 C.3       11 UNK        -0.0857 
     47 S47       -76.8318   25.0081  -70.7942 S.3       11 UNK        -0.2512 
     48 C48       -77.6046   26.5744  -70.2701 C.3       11 UNK         0.0225 
     49 N         -77.2989   23.3179  -74.4440 N.am      5 UNK        -0.4615 
     50 C         -76.6210   22.3642  -75.0974 C.2       4 UNK         0.5053 
     51 O         -75.4396   22.0954  -74.8815 O.2       4 UNK        -0.5105 
     52 CA        -77.3772   21.5732  -76.1804 C.3       4 UNK         0.0263 
     53 CB        -77.9159   20.2548  -75.6024 C.3       4 UNK        -0.1981 
     54 N         -78.4814   22.3197  -76.7873 N.am      4 UNK        -0.4224 
     55 C         -78.3374   23.4131  -77.5494 C.2       3 UNK         0.4895 
     56 O         -77.2486   23.8960  -77.8594 O.2       3 UNK        -0.5091 
     57 CA        -79.6327   24.1124  -77.9979 C.3       3 UNK         0.0250 
     58 CB        -80.1437   23.5037  -79.3134 C.3       3 UNK        -0.1996 
     59 N         -80.7047   24.0858  -76.9940 N.am      3 UNK        -0.4254 
     60 C         -80.6110   24.5927  -75.7565 C.2       2 UNK         0.5004 
     61 O         -79.5808   25.0857  -75.2899 O.2       2 UNK        -0.5226 
     62 CA        -81.8508   24.4734  -74.8633 C.3       2 UNK         0.0269 
     63 CB        -81.6534   23.3545  -73.8273 C.3       2 UNK        -0.1926 
     64 N         -82.0752   25.7361  -74.1638 N.am      2 UNK        -0.4687 
     65 C         -82.7832   26.7649  -74.6510 C.2       1 UNK         0.5165 
     66 O         -83.3932   26.7200  -75.7203 O.2       1 UNK        -0.5079 
     67 H67       -85.0216   27.5840  -71.7616 H         1 UNK         0.0900 
     68 H68       -84.6618   26.3283  -70.5845 H         1 UNK         0.0900 
     69 H69       -84.4087   26.0070  -72.2942 H         1 UNK         0.0900 
     70 H70       -81.3615   28.2076  -72.3315 H         1 UNK         0.2959 
     71 H71       -83.9012   28.3089  -73.7182 H         1 UNK         0.1079 
     72 H72       -82.5918   29.4007  -75.5042 H         1 UNK         0.0837 
     73 H73       -82.3709   30.1778  -73.9713 H         1 UNK         0.0837 
     74 H74       -79.4848   31.0443  -73.6282 H         1 UNK         0.0685 
     75 H75       -80.4597   30.1166  -72.5155 H         1 UNK         0.0685 
     76 H76       -79.5618   28.0649  -71.4206 H         1 UNK         0.1434 
     77 H77       -75.3105   27.5422  -71.4082 H         1 UNK         0.1329 
     78 H78       -77.1000   30.4877  -73.9611 H         1 UNK         0.1335 
     79 H79       -74.2779   28.5013  -73.7611 H         1 UNK         0.0680 
     80 H80       -74.7616   30.1391  -74.0858 H         1 UNK         0.0680 
     81 H81       -73.0041   32.2911  -71.6851 H         1 UNK         0.1032 
     82 H82       -73.9572   32.0681  -73.1112 H         1 UNK         0.1032 
     83 H83       -71.7725   32.7385  -73.8237 H         1 UNK         0.0461 
     84 H84       -68.8457   30.4378  -72.3430 H         1 UNK         0.3453 
     85 H85       -69.8769   29.8774  -73.6370 H         1 UNK         0.3453 
     86 H86       -72.5010   30.0022  -74.4667 H         1 UNK         0.2984 
     87 H87       -72.3802   30.0730  -77.3376 H         1 UNK         0.0554 
     88 H88       -70.4858   28.9261  -78.5132 H         1 UNK         0.0847 
     89 H89       -69.3643   29.5333  -77.2961 H         1 UNK         0.0847 
     90 H90       -70.2089   30.6521  -78.3559 H         1 UNK         0.0847 
     91 H91       -72.6127   28.0755  -76.4523 H         1 UNK         0.3141 
     92 H92       -70.4927   25.7586  -75.0478 H         1 UNK         0.0743 
     93 H93       -72.5923   27.0067  -73.1952 H         1 UNK         0.0784 
     94 H94       -71.9821   25.3586  -73.0912 H         1 UNK         0.0784 
     95 H95       -70.9082   26.7162  -72.7950 H         1 UNK         0.0784 
     96 H96       -73.3771   25.8301  -75.2524 H         1 UNK         0.3213 
     97 H97       -73.5777   25.6025  -78.7411 H         1 UNK         0.0855 
     98 H98       -73.8916   23.1042  -76.9889 H         1 UNK         0.0814 
     99 H99       -72.8756   23.2145  -78.4198 H         1 UNK         0.0814 
    100 H100      -74.6178   23.3562  -78.5762 H         1 UNK         0.0814 
    101 H101      -75.6255   24.9457  -76.9919 H         1 UNK         0.3105 
    102 H102      -76.3313   27.9989  -75.3839 H         1 UNK         0.0547 
    103 H103      -77.4416   28.4017  -77.5172 H         1 UNK         0.0837 
    104 H104      -77.7334   26.6887  -77.7644 H         1 UNK         0.0837 
    105 H105      -78.5799   27.5523  -76.4829 H         1 UNK         0.0837 
    106 H106      -77.8211   25.6661  -75.2812 H         1 UNK         0.3020 
    107 H107      -75.8594   23.7168  -73.0042 H         1 UNK         0.1245 
    108 H108      -78.3662   23.7961  -72.1428 H         1 UNK         0.0781 
    109 H109      -78.3431   25.4537  -72.6653 H         1 UNK         0.0781 
    110 H110      -77.1487   26.8949  -69.3325 H         1 UNK         0.0836 
    111 H111      -78.6569   26.3861  -70.0505 H         1 UNK         0.0836 
    112 H112      -78.2483   23.5280  -74.7245 H         1 UNK         0.3022 
    113 H113      -76.6607   21.3352  -76.9698 H         1 UNK         0.0747 
    114 H114      -78.3827   19.6433  -76.3750 H         1 UNK         0.0793 
    115 H115      -77.1102   19.6622  -75.1665 H         1 UNK         0.0793 
    116 H116      -78.6537   20.4283  -74.8178 H         1 UNK         0.0793 
    117 H117      -79.4165   21.9953  -76.5888 H         1 UNK         0.3047 
    118 H118      -79.3926   25.1598  -78.1840 H         1 UNK         0.0822 
    119 H119      -81.0003   24.0558  -79.7005 H         1 UNK         0.0807 
    120 H120      -80.4425   22.4619  -79.1897 H         1 UNK         0.0807 
    121 H121      -79.3699   23.5315  -80.0822 H         1 UNK         0.0807 
    122 H122      -81.5838   23.6854  -77.2898 H         1 UNK         0.2946 
    123 H123      -82.7229   24.2332  -75.4762 H         1 UNK         0.1144 
    124 H124      -80.7901   23.5413  -73.1871 H         1 UNK         0.0793 
    125 H125      -81.4961   22.3916  -74.3151 H         1 UNK         0.0793 
    126 H126      -82.5285   23.2518  -73.1853 H         1 UNK         0.0793 
    127 H127      -81.5525   25.8804  -73.3123 H         1 UNK         0.2896 
@<TRIPOS>BOND
     1    1    2 1    
     2    1   67 1    
     3    1   68 1    
     4    1   69 1    
     5    2    3 2    
     6    2    4 am   BACKBONE|DICT|INTERRES
     7    4    5 1    
     8    4   70 1    
     9    5    6 1    
    10    5   65 1    
    11    5   71 1    
    12    6    7 1    
    13    6   72 1    
    14    6   73 1    
    15    7    8 1    
    16    8    9 1    
    17    8   74 1    
    18    8   75 1    
    19    9   10 ar   
    20    9   14 ar   
    21   10   11 ar   
    22   10   76 1    
    23   11   12 ar   
    24   11   48 1    
    25   12   13 ar   
    26   12   77 1    
    27   13   14 ar   
    28   13   15 1    
    29   14   78 1    
    30   15   16 1    
    31   15   79 1    
    32   15   80 1    
    33   16   17 1    
    34   17   18 1    
    35   17   81 1    
    36   17   82 1    
    37   18   19 1    
    38   18   22 1    
    39   18   83 1    
    40   19   20 am   BACKBONE|DICT|INTERRES
    41   19   21 2    
    42   20   84 1    
    43   20   85 1    
    44   22   23 am   BACKBONE|DICT|INTERRES
    45   22   86 1    
    46   23   24 2    
    47   23   25 1    
    48   25   26 1    
    49   25   27 1    
    50   25   87 1    
    51   26   88 1    
    52   26   89 1    
    53   26   90 1    
    54   27   28 am   BACKBONE|DICT|INTERRES
    55   27   91 1    
    56   28   29 2    
    57   28   30 1    
    58   30   31 1    
    59   30   32 1    
    60   30   92 1    
    61   31   93 1    
    62   31   94 1    
    63   31   95 1    
    64   32   33 am   BACKBONE|DICT|INTERRES
    65   32   96 1    
    66   33   34 2    
    67   33   35 1    
    68   35   36 1    
    69   35   37 1    
    70   35   97 1    
    71   36   98 1    
    72   36   99 1    
    73   36  100 1    
    74   37   38 am   BACKBONE|DICT|INTERRES
    75   37  101 1    
    76   38   39 2    
    77   38   40 1    
    78   40   41 1    
    79   40   42 1    
    80   40  102 1    
    81   41  103 1    
    82   41  104 1    
    83   41  105 1    
    84   42   43 am   BACKBONE|DICT|INTERRES
    85   42  106 1    
    86   43   44 2    
    87   43   45 1    
    88   45   46 1    
    89   45   49 1    
    90   45  107 1    
    91   46   47 1    
    92   46  108 1    
    93   46  109 1    
    94   47   48 1    
    95   48  110 1    
    96   48  111 1    
    97   49   50 am   BACKBONE|DICT|INTERRES
    98   49  112 1    
    99   50   51 2    
   100   50   52 1    
   101   52   53 1    
   102   52   54 1    
   103   52  113 1    
   104   53  114 1    
   105   53  115 1    
   106   53  116 1    
   107   54   55 am   BACKBONE|DICT|INTERRES
   108   54  117 1    
   109   55   56 2    
   110   55   57 1    
   111   57   58 1    
   112   57   59 1    
   113   57  118 1    
   114   58  119 1    
   115   58  120 1    
   116   58  121 1    
   117   59   60 am   BACKBONE|DICT|INTERRES
   118   59  122 1    
   119   60   61 2    
   120   60   62 1    
   121   62   63 1    
   122   62   64 1    
   123   62  123 1    
   124   63  124 1    
   125   63  125 1    
   126   63  126 1    
   127   64   65 am   BACKBONE|DICT|INTERRES
   128   64  127 1    
   129   65   66 2    
@<TRIPOS>SUBSTRUCTURE
     1 UNK         1 GROUP             0       ****    0 ROOT    
