@<TRIPOS>MOLECULE
3R135
127   129    1
SMALL
USER_CHARGES


@<TRIPOS>ATOM
      1 CA        -84.1190   29.7250  -75.1606 C.3       0 UNK        -0.1998 
      2 C         -82.7788   29.2213  -75.6745 C.2       0 UNK         0.4909 
      3 O         -82.5846   29.1228  -76.8864 O.2       0 UNK        -0.5240 
      4 N         -81.8526   28.9005  -74.7615 N.am      1 UNK        -0.4739 
      5 CA        -80.5000   28.4123  -75.0736 C.3       1 UNK         0.0864 
      6 C6        -79.5338   28.5565  -73.8707 C.3       11 UNK        -0.0881 
      7 S7        -79.5717   30.1902  -73.0547 S.3       11 UNK        -0.2682 
      8 C8        -79.6967   29.7180  -71.2964 C.3       11 UNK         0.0289 
      9 C9        -78.3855   29.1409  -70.7800 C.ar      11 UNK        -0.0687 
     10 C10       -78.1842   27.7573  -70.7356 C.ar      11 UNK        -0.0823 
     11 C11       -76.9479   27.2278  -70.3437 C.ar      11 UNK        -0.0830 
     12 C12       -75.9412   28.0986  -69.9161 C.ar      11 UNK        -0.1021 
     13 C13       -76.1416   29.4818  -69.9209 C.ar      11 UNK        -0.0753 
     14 C14       -77.3625   29.9975  -70.3640 C.ar      11 UNK        -0.0933 
     15 C15       -75.0418   30.4174  -69.4383 C.3       11 UNK         0.0166 
     16 S16       -73.5366   30.3149  -70.4582 S.3       11 UNK        -0.2615 
     17 C17       -74.1041   30.9867  -72.0614 C.3       11 UNK        -0.0865 
     18 CA        -73.9979   29.9638  -73.2333 C.3       10 UNK         0.0862 
     19 C         -74.5391   30.5470  -74.5761 C.2       10 UNK         0.5551 
     20 N         -73.9388   30.2517  -75.7239 N.am      10 UNK        -0.7319 
     21 O         -75.5331   31.2686  -74.5825 O.2       10 UNK        -0.5018 
     22 N         -72.6699   29.3329  -73.3460 N.am      10 UNK        -0.4509 
     23 C         -71.5063   29.9615  -73.5680 C.2       10 UNK         0.4899 
     24 O         -71.3785   31.1846  -73.6302 O.2       10 UNK        -0.4839 
     25 CA        -70.2631   29.0755  -73.7801 C.3       9 UNK         0.0222 
     26 CB        -69.4794   28.9368  -72.4647 C.3       9 UNK        -0.1966 
     27 N         -70.5460   27.7383  -74.3184 N.am      9 UNK        -0.4218 
     28 C         -71.1570   27.4811  -75.4841 C.2       9 UNK         0.5020 
     29 O         -71.5665   28.3641  -76.2432 O.2       9 UNK        -0.5274 
     30 CA        -71.3397   25.9971  -75.8530 C.3       8 UNK         0.0270 
     31 CB        -71.6987   25.1194  -74.6360 C.3       8 UNK        -0.1976 
     32 N         -72.4096   25.8743  -76.8385 N.am      8 UNK        -0.4313 
     33 C         -72.2553   25.6138  -78.1425 C.2       8 UNK         0.5041 
     34 O         -71.1670   25.3682  -78.6664 O.2       8 UNK        -0.5577 
     35 CA        -73.5209   25.6160  -79.0226 C.3       7 UNK         0.0284 
     36 CB        -73.8302   24.2002  -79.5398 C.3       7 UNK        -0.1958 
     37 N         -74.6947   26.1338  -78.3147 N.am      7 UNK        -0.4454 
     38 C         -75.0318   27.4297  -78.2473 C.2       7 UNK         0.5089 
     39 O         -74.4438   28.3205  -78.8606 O.2       7 UNK        -0.5125 
     40 CA        -76.2237   27.8054  -77.3443 C.3       6 UNK         0.0408 
     41 CB        -77.4780   28.0538  -78.1964 C.3       6 UNK        -0.1791 
     42 N         -76.5278   26.8210  -76.2983 N.am      6 UNK        -0.4762 
     43 C         -75.7039   26.4998  -75.2874 C.2       6 UNK         0.5007 
     44 O         -74.5981   27.0122  -75.1199 O.2       6 UNK        -0.5032 
     45 CA        -76.1621   25.3786  -74.3330 C.3       5 UNK         0.0783 
     46 C46       -77.0765   25.9691  -73.2430 C.3       11 UNK        -0.0857 
     47 S47       -77.3906   24.8468  -71.8378 S.3       11 UNK        -0.2512 
     48 C48       -76.6558   25.7269  -70.4077 C.3       11 UNK         0.0225 
     49 N         -76.7946   24.2665  -75.0533 N.am      5 UNK        -0.4615 
     50 C         -76.1715   23.5138  -75.9723 C.2       4 UNK         0.5053 
     51 O         -74.9950   23.6887  -76.2892 O.2       4 UNK        -0.5105 
     52 CA        -76.9809   22.4311  -76.7130 C.3       4 UNK         0.0263 
     53 CB        -76.1693   21.1331  -76.9119 C.3       4 UNK        -0.1981 
     54 N         -78.3051   22.1506  -76.1451 N.am      4 UNK        -0.4224 
     55 C         -78.5977   21.5958  -74.9585 C.2       3 UNK         0.4895 
     56 O         -77.7540   21.2186  -74.1442 O.2       3 UNK        -0.5091 
     57 CA        -80.1006   21.4467  -74.6441 C.3       3 UNK         0.0250 
     58 CB        -80.3828   21.2334  -73.1405 C.3       3 UNK        -0.1996 
     59 N         -80.9129   22.5486  -75.1863 N.am      3 UNK        -0.4254 
     60 C         -80.8316   23.8462  -74.8524 C.2       2 UNK         0.5004 
     61 O         -80.0547   24.2860  -74.0037 O.2       2 UNK        -0.5226 
     62 CA        -81.7844   24.7968  -75.6048 C.3       2 UNK         0.0269 
     63 CB        -83.2567   24.4528  -75.3114 C.3       2 UNK        -0.1926 
     64 N         -81.5743   26.2082  -75.2742 N.am      2 UNK        -0.4687 
     65 C         -80.4972   26.9480  -75.5770 C.2       1 UNK         0.5165 
     66 O         -79.5284   26.5198  -76.2083 O.2       1 UNK        -0.5079 
     67 H67       -84.1485   29.7685  -74.0720 H         1 UNK         0.0900 
     68 H68       -84.9206   29.0675  -75.4959 H         1 UNK         0.0900 
     69 H69       -84.3156   30.7256  -75.5447 H         1 UNK         0.0900 
     70 H70       -82.0525   29.0316  -73.7799 H         1 UNK         0.2959 
     71 H71       -80.1092   29.0255  -75.8886 H         1 UNK         0.1079 
     72 H72       -78.5068   28.3889  -74.1991 H         1 UNK         0.0837 
     73 H73       -79.7543   27.7872  -73.1299 H         1 UNK         0.0837 
     74 H74       -79.9610   30.6017  -70.7136 H         1 UNK         0.0685 
     75 H75       -80.5144   29.0088  -71.1590 H         1 UNK         0.0685 
     76 H76       -78.9739   27.0907  -71.0525 H         1 UNK         0.1434 
     77 H77       -74.9865   27.7042  -69.5949 H         1 UNK         0.1329 
     78 H78       -77.5190   31.0673  -70.3911 H         1 UNK         0.1335 
     79 H79       -75.3873   31.4523  -69.4145 H         1 UNK         0.0680 
     80 H80       -74.7855   30.1575  -68.4103 H         1 UNK         0.0680 
     81 H81       -73.5209   31.8820  -72.2806 H         1 UNK         0.1032 
     82 H82       -75.1351   31.3291  -71.9582 H         1 UNK         0.1032 
     83 H83       -74.6779   29.1436  -72.9989 H         1 UNK         0.0461 
     84 H84       -73.1418   29.6254  -75.7467 H         1 UNK         0.3453 
     85 H85       -74.2980   30.6346  -76.5826 H         1 UNK         0.3453 
     86 H86       -72.6732   28.3240  -73.3481 H         1 UNK         0.2984 
     87 H87       -69.6244   29.5854  -74.5042 H         1 UNK         0.0554 
     88 H88       -68.5423   28.3997  -72.6120 H         1 UNK         0.0847 
     89 H89       -70.0568   28.4086  -71.7046 H         1 UNK         0.0847 
     90 H90       -69.2269   29.9165  -72.0563 H         1 UNK         0.0847 
     91 H91       -70.2422   26.9555  -73.7576 H         1 UNK         0.3141 
     92 H92       -70.3952   25.6432  -76.2706 H         1 UNK         0.0743 
     93 H93       -72.5528   25.5161  -74.0859 H         1 UNK         0.0784 
     94 H94       -71.9524   24.1051  -74.9462 H         1 UNK         0.0784 
     95 H95       -70.8639   25.0351  -73.9398 H         1 UNK         0.0784 
     96 H96       -73.3262   26.1528  -76.5064 H         1 UNK         0.3213 
     97 H97       -73.3125   26.2505  -79.8869 H         1 UNK         0.0855 
     98 H98       -73.9956   23.4960  -78.7243 H         1 UNK         0.0814 
     99 H99       -73.0014   23.8148  -80.1351 H         1 UNK         0.0814 
    100 H100      -74.7151   24.1931  -80.1763 H         1 UNK         0.0814 
    101 H101      -75.2072   25.4696  -77.7495 H         1 UNK         0.3105 
    102 H102      -75.9687   28.7423  -76.8474 H         1 UNK         0.0547 
    103 H103      -77.2717   28.7554  -79.0059 H         1 UNK         0.0837 
    104 H104      -77.8491   27.1331  -78.6480 H         1 UNK         0.0837 
    105 H105      -78.2816   28.4848  -77.6005 H         1 UNK         0.0837 
    106 H106      -77.4461   26.3891  -76.3381 H         1 UNK         0.3020 
    107 H107      -75.2624   24.9882  -73.8516 H         1 UNK         0.1245 
    108 H108      -78.0466   26.2110  -73.6740 H         1 UNK         0.0781 
    109 H109      -76.6583   26.9080  -72.8791 H         1 UNK         0.0781 
    110 H110      -75.5780   25.5587  -70.4372 H         1 UNK         0.0836 
    111 H111      -77.0132   25.2607  -69.4889 H         1 UNK         0.0836 
    112 H112      -77.7593   24.0710  -74.8183 H         1 UNK         0.3022 
    113 H113      -77.1717   22.8444  -77.7045 H         1 UNK         0.0747 
    114 H114      -76.7425   20.3857  -77.4603 H         1 UNK         0.0793 
    115 H115      -75.2596   21.3230  -77.4831 H         1 UNK         0.0793 
    116 H116      -75.8660   20.6940  -75.9612 H         1 UNK         0.0793 
    117 H117      -79.0855   22.4304  -76.7229 H         1 UNK         0.3047 
    118 H118      -80.4246   20.5447  -75.1656 H         1 UNK         0.0822 
    119 H119      -81.4503   21.1299  -72.9470 H         1 UNK         0.0807 
    120 H120      -80.0102   22.0613  -72.5360 H         1 UNK         0.0807 
    121 H121      -79.8991   20.3259  -72.7772 H         1 UNK         0.0807 
    122 H122      -81.5873   22.2803  -75.8903 H         1 UNK         0.2946 
    123 H123      -81.5963   24.6747  -76.6738 H         1 UNK         0.1144 
    124 H124      -83.5027   23.4367  -75.6215 H         1 UNK         0.0793 
    125 H125      -83.9336   25.1186  -75.8475 H         1 UNK         0.0793 
    126 H126      -83.4832   24.5318  -74.2472 H         1 UNK         0.0793 
    127 H127      -82.2984   26.6527  -74.7301 H         1 UNK         0.2896 
@<TRIPOS>BOND
     1    1    2 1    
     2    1   67 1    
     3    1   68 1    
     4    1   69 1    
     5    2    3 2    
     6    2    4 am   BACKBONE|DICT|INTERRES
     7    4    5 1    
     8    4   70 1    
     9    5    6 1    
    10    5   65 1    
    11    5   71 1    
    12    6    7 1    
    13    6   72 1    
    14    6   73 1    
    15    7    8 1    
    16    8    9 1    
    17    8   74 1    
    18    8   75 1    
    19    9   10 ar   
    20    9   14 ar   
    21   10   11 ar   
    22   10   76 1    
    23   11   12 ar   
    24   11   48 1    
    25   12   13 ar   
    26   12   77 1    
    27   13   14 ar   
    28   13   15 1    
    29   14   78 1    
    30   15   16 1    
    31   15   79 1    
    32   15   80 1    
    33   16   17 1    
    34   17   18 1    
    35   17   81 1    
    36   17   82 1    
    37   18   19 1    
    38   18   22 1    
    39   18   83 1    
    40   19   20 am   BACKBONE|DICT|INTERRES
    41   19   21 2    
    42   20   84 1    
    43   20   85 1    
    44   22   23 am   BACKBONE|DICT|INTERRES
    45   22   86 1    
    46   23   24 2    
    47   23   25 1    
    48   25   26 1    
    49   25   27 1    
    50   25   87 1    
    51   26   88 1    
    52   26   89 1    
    53   26   90 1    
    54   27   28 am   BACKBONE|DICT|INTERRES
    55   27   91 1    
    56   28   29 2    
    57   28   30 1    
    58   30   31 1    
    59   30   32 1    
    60   30   92 1    
    61   31   93 1    
    62   31   94 1    
    63   31   95 1    
    64   32   33 am   BACKBONE|DICT|INTERRES
    65   32   96 1    
    66   33   34 2    
    67   33   35 1    
    68   35   36 1    
    69   35   37 1    
    70   35   97 1    
    71   36   98 1    
    72   36   99 1    
    73   36  100 1    
    74   37   38 am   BACKBONE|DICT|INTERRES
    75   37  101 1    
    76   38   39 2    
    77   38   40 1    
    78   40   41 1    
    79   40   42 1    
    80   40  102 1    
    81   41  103 1    
    82   41  104 1    
    83   41  105 1    
    84   42   43 am   BACKBONE|DICT|INTERRES
    85   42  106 1    
    86   43   44 2    
    87   43   45 1    
    88   45   46 1    
    89   45   49 1    
    90   45  107 1    
    91   46   47 1    
    92   46  108 1    
    93   46  109 1    
    94   47   48 1    
    95   48  110 1    
    96   48  111 1    
    97   49   50 am   BACKBONE|DICT|INTERRES
    98   49  112 1    
    99   50   51 2    
   100   50   52 1    
   101   52   53 1    
   102   52   54 1    
   103   52  113 1    
   104   53  114 1    
   105   53  115 1    
   106   53  116 1    
   107   54   55 am   BACKBONE|DICT|INTERRES
   108   54  117 1    
   109   55   56 2    
   110   55   57 1    
   111   57   58 1    
   112   57   59 1    
   113   57  118 1    
   114   58  119 1    
   115   58  120 1    
   116   58  121 1    
   117   59   60 am   BACKBONE|DICT|INTERRES
   118   59  122 1    
   119   60   61 2    
   120   60   62 1    
   121   62   63 1    
   122   62   64 1    
   123   62  123 1    
   124   63  124 1    
   125   63  125 1    
   126   63  126 1    
   127   64   65 am   BACKBONE|DICT|INTERRES
   128   64  127 1    
   129   65   66 2    
@<TRIPOS>SUBSTRUCTURE
     1 UNK         1 GROUP             0       ****    0 ROOT    
