@<TRIPOS>MOLECULE
3R135
127   129    1
SMALL
USER_CHARGES


@<TRIPOS>ATOM
      1 CA        -82.9459   29.9128  -75.2853 C.3       0 UNK        -0.1998 
      2 C         -81.7330   29.4249  -74.5084 C.2       0 UNK         0.4909 
      3 O         -80.6904   30.0809  -74.5205 O.2       0 UNK        -0.5240 
      4 N         -81.8508   28.2706  -73.8383 N.am      1 UNK        -0.4739 
      5 CA        -80.7862   27.6336  -73.0553 C.3       1 UNK         0.0864 
      6 C6        -81.3884   26.7446  -71.9365 C.3       11 UNK        -0.0881 
      7 S7        -80.2399   26.1402  -70.6459 S.3       11 UNK        -0.2682 
      8 C8        -79.2524   27.5970  -70.1517 C.3       11 UNK         0.0289 
      9 C9        -77.9347   27.6783  -70.9139 C.ar      11 UNK        -0.0687 
     10 C10       -77.0217   26.6225  -70.8331 C.ar      11 UNK        -0.0823 
     11 C11       -75.8319   26.6456  -71.5673 C.ar      11 UNK        -0.0830 
     12 C12       -75.5352   27.7647  -72.3497 C.ar      11 UNK        -0.1021 
     13 C13       -76.4177   28.8469  -72.4066 C.ar      11 UNK        -0.0753 
     14 C14       -77.6177   28.7987  -71.6896 C.ar      11 UNK        -0.0933 
     15 C15       -76.0709   30.0648  -73.2463 C.3       11 UNK         0.0166 
     16 S16       -75.2419   31.3298  -72.2403 S.3       11 UNK        -0.2615 
     17 C17       -74.7451   32.5379  -73.5203 C.3       11 UNK        -0.0865 
     18 CA        -73.2071   32.6930  -73.6634 C.3       10 UNK         0.0862 
     19 C         -72.5814   33.4460  -72.4497 C.2       10 UNK         0.5551 
     20 N         -71.7031   32.8333  -71.6649 N.am      10 UNK        -0.7319 
     21 O         -72.8930   34.6135  -72.2269 O.2       10 UNK        -0.5018 
     22 N         -72.5654   31.4169  -74.0234 N.am      10 UNK        -0.4509 
     23 C         -71.3351   31.2912  -74.5384 C.2       10 UNK         0.4899 
     24 O         -70.5973   32.2409  -74.8021 O.2       10 UNK        -0.4839 
     25 CA        -70.8426   29.8596  -74.8085 C.3       9 UNK         0.0222 
     26 CB        -70.2142   29.2571  -73.5414 C.3       9 UNK        -0.1966 
     27 N         -71.8959   28.9669  -75.2973 N.am      9 UNK        -0.4218 
     28 C         -72.4882   29.0445  -76.4949 C.2       9 UNK         0.5020 
     29 O         -72.2042   29.8983  -77.3374 O.2       9 UNK        -0.5274 
     30 CA        -73.5646   27.9801  -76.8051 C.3       8 UNK         0.0270 
     31 CB        -74.1420   28.1293  -78.2259 C.3       8 UNK        -0.1976 
     32 N         -73.0899   26.6012  -76.6492 N.am      8 UNK        -0.4313 
     33 C         -72.7955   25.9760  -75.5037 C.2       8 UNK         0.5041 
     34 O         -72.8615   26.5204  -74.3998 O.2       8 UNK        -0.5577 
     35 CA        -72.3839   24.4959  -75.6195 C.3       7 UNK         0.0284 
     36 CB        -71.8136   23.9423  -74.3007 C.3       7 UNK        -0.1958 
     37 N         -73.5193   23.6669  -76.0231 N.am      7 UNK        -0.4454 
     38 C         -74.0704   23.6099  -77.2415 C.2       7 UNK         0.5089 
     39 O         -73.6034   24.1940  -78.2208 O.2       7 UNK        -0.5125 
     40 CA        -75.3814   22.8139  -77.3917 C.3       6 UNK         0.0408 
     41 CB        -75.1107   21.3394  -77.7465 C.3       6 UNK        -0.1791 
     42 N         -76.2959   22.9526  -76.2469 N.am      6 UNK        -0.4762 
     43 C         -76.1620   22.4781  -74.9984 C.2       6 UNK         0.5007 
     44 O         -75.2229   21.7680  -74.6383 O.2       6 UNK        -0.5032 
     45 CA        -77.2127   22.9195  -73.9610 C.3       5 UNK         0.0783 
     46 C46       -76.7528   24.1989  -73.2207 C.3       11 UNK        -0.0857 
     47 S47       -75.6786   23.8472  -71.7910 S.3       11 UNK        -0.2512 
     48 C48       -74.8667   25.4634  -71.5328 C.3       11 UNK         0.0225 
     49 N         -78.5494   23.1036  -74.5300 N.am      5 UNK        -0.4615 
     50 C         -79.3421   22.1199  -74.9740 C.2       4 UNK         0.5053 
     51 O         -79.0167   20.9330  -74.9990 O.2       4 UNK        -0.5105 
     52 CA        -80.7412   22.5307  -75.4562 C.3       4 UNK         0.0263 
     53 CB        -81.7027   22.6635  -74.2632 C.3       4 UNK        -0.1981 
     54 N         -80.6965   23.7982  -76.1856 N.am      4 UNK        -0.4224 
     55 C         -80.5401   23.9025  -77.5125 C.2       3 UNK         0.4895 
     56 O         -80.5033   22.9382  -78.2776 O.2       3 UNK        -0.5091 
     57 CA        -80.3940   25.3215  -78.0934 C.3       3 UNK         0.0250 
     58 CB        -81.7655   25.8731  -78.5155 C.3       3 UNK        -0.1996 
     59 N         -79.7536   26.2722  -77.1805 N.am      3 UNK        -0.4254 
     60 C         -78.4892   26.1837  -76.7444 C.2       2 UNK         0.5004 
     61 O         -77.7080   25.2942  -77.0769 O.2       2 UNK        -0.5226 
     62 CA        -78.0285   27.2476  -75.7352 C.3       2 UNK         0.0269 
     63 CB        -77.5052   28.4816  -76.4858 C.3       2 UNK        -0.1926 
     64 N         -79.0575   27.6763  -74.7821 N.am      2 UNK        -0.4687 
     65 C         -79.8095   26.8937  -73.9952 C.2       1 UNK         0.5165 
     66 O         -79.7959   25.6619  -74.0458 O.2       1 UNK        -0.5079 
     67 H67       -83.7932   29.2342  -75.1879 H         1 UNK         0.0900 
     68 H68       -82.7022   30.0021  -76.3436 H         1 UNK         0.0900 
     69 H69       -83.2531   30.8932  -74.9225 H         1 UNK         0.0900 
     70 H70       -82.7230   27.7622  -73.8837 H         1 UNK         0.2959 
     71 H71       -80.2236   28.4327  -72.5752 H         1 UNK         0.1079 
     72 H72       -82.1667   27.3042  -71.4148 H         1 UNK         0.0837 
     73 H73       -81.8944   25.8795  -72.3694 H         1 UNK         0.0837 
     74 H74       -79.8426   28.5077  -70.2629 H         1 UNK         0.0685 
     75 H75       -79.0266   27.5131  -69.0879 H         1 UNK         0.0685 
     76 H76       -77.2588   25.7593  -70.2262 H         1 UNK         0.1434 
     77 H77       -74.6125   27.7969  -72.9126 H         1 UNK         0.1329 
     78 H78       -78.3004   29.6359  -71.7385 H         1 UNK         0.1335 
     79 H79       -75.4212   29.7758  -74.0738 H         1 UNK         0.0680 
     80 H80       -76.9751   30.4873  -73.6876 H         1 UNK         0.0680 
     81 H81       -75.2072   33.4989  -73.2855 H         1 UNK         0.1032 
     82 H82       -75.1698   32.2474  -74.4824 H         1 UNK         0.1032 
     83 H83       -73.0467   33.3589  -74.5138 H         1 UNK         0.0461 
     84 H84       -71.3018   33.3319  -70.8865 H         1 UNK         0.3453 
     85 H85       -71.4475   31.8754  -71.8395 H         1 UNK         0.3453 
     86 H86       -73.0894   30.5828  -73.8071 H         1 UNK         0.2984 
     87 H87       -70.0687   29.9153  -75.5771 H         1 UNK         0.0554 
     88 H88       -69.7791   28.2779  -73.7427 H         1 UNK         0.0847 
     89 H89       -70.9465   29.1383  -72.7417 H         1 UNK         0.0847 
     90 H90       -69.4137   29.8934  -73.1610 H         1 UNK         0.0847 
     91 H91       -72.1720   28.1870  -74.7009 H         1 UNK         0.3141 
     92 H92       -74.3786   28.1346  -76.0939 H         1 UNK         0.0743 
     93 H93       -74.6047   29.1080  -78.3608 H         1 UNK         0.0784 
     94 H94       -73.3674   28.0266  -78.9872 H         1 UNK         0.0784 
     95 H95       -74.9048   27.3773  -78.4291 H         1 UNK         0.0784 
     96 H96       -73.0476   26.0418  -77.4952 H         1 UNK         0.3213 
     97 H97       -71.6046   24.4250  -76.3814 H         1 UNK         0.0855 
     98 H98       -70.9668   24.5395  -73.9597 H         1 UNK         0.0814 
     99 H99       -71.4601   22.9182  -74.4208 H         1 UNK         0.0814 
    100 H100      -72.5588   23.9472  -73.5040 H         1 UNK         0.0814 
    101 H101      -73.9711   23.1230  -75.2947 H         1 UNK         0.3105 
    102 H102      -75.9148   23.2565  -78.2345 H         1 UNK         0.0547 
    103 H103      -74.5486   21.2643  -78.6782 H         1 UNK         0.0837 
    104 H104      -74.5272   20.8305  -76.9791 H         1 UNK         0.0837 
    105 H105      -76.0406   20.7876  -77.8833 H         1 UNK         0.0837 
    106 H106      -77.0560   23.6081  -76.4162 H         1 UNK         0.3020 
    107 H107      -77.2983   22.1075  -73.2347 H         1 UNK         0.1245 
    108 H108      -77.6189   24.7284  -72.8215 H         1 UNK         0.0781 
    109 H109      -76.2606   24.9037  -73.8945 H         1 UNK         0.0781 
    110 H110      -74.0927   25.5797  -72.2914 H         1 UNK         0.0836 
    111 H111      -74.3533   25.4525  -70.5708 H         1 UNK         0.0836 
    112 H112      -78.9295   24.0450  -74.4839 H         1 UNK         0.3022 
    113 H113      -81.1197   21.7401  -76.1079 H         1 UNK         0.0747 
    114 H114      -82.7101   22.9166  -74.5938 H         1 UNK         0.0793 
    115 H115      -81.7692   21.7252  -73.7107 H         1 UNK         0.0793 
    116 H116      -81.3778   23.4326  -73.5610 H         1 UNK         0.0793 
    117 H117      -80.6634   24.6403  -75.6224 H         1 UNK         0.3047 
    118 H118      -79.7661   25.2446  -78.9838 H         1 UNK         0.0822 
    119 H119      -81.6700   26.8388  -79.0124 H         1 UNK         0.0807 
    120 H120      -82.4320   25.9981  -77.6611 H         1 UNK         0.0807 
    121 H121      -82.2582   25.1980  -79.2168 H         1 UNK         0.0807 
    122 H122      -80.3182   27.0395  -76.8469 H         1 UNK         0.2946 
    123 H123      -77.2075   26.8160  -75.1592 H         1 UNK         0.1144 
    124 H124      -77.0114   29.1807  -75.8140 H         1 UNK         0.0793 
    125 H125      -78.3097   29.0170  -76.9918 H         1 UNK         0.0793 
    126 H126      -76.7802   28.1981  -77.2470 H         1 UNK         0.0793 
    127 H127      -79.2254   28.6754  -74.7190 H         1 UNK         0.2896 
@<TRIPOS>BOND
     1    1    2 1    
     2    1   67 1    
     3    1   68 1    
     4    1   69 1    
     5    2    3 2    
     6    2    4 am   BACKBONE|DICT|INTERRES
     7    4    5 1    
     8    4   70 1    
     9    5    6 1    
    10    5   65 1    
    11    5   71 1    
    12    6    7 1    
    13    6   72 1    
    14    6   73 1    
    15    7    8 1    
    16    8    9 1    
    17    8   74 1    
    18    8   75 1    
    19    9   10 ar   
    20    9   14 ar   
    21   10   11 ar   
    22   10   76 1    
    23   11   12 ar   
    24   11   48 1    
    25   12   13 ar   
    26   12   77 1    
    27   13   14 ar   
    28   13   15 1    
    29   14   78 1    
    30   15   16 1    
    31   15   79 1    
    32   15   80 1    
    33   16   17 1    
    34   17   18 1    
    35   17   81 1    
    36   17   82 1    
    37   18   19 1    
    38   18   22 1    
    39   18   83 1    
    40   19   20 am   BACKBONE|DICT|INTERRES
    41   19   21 2    
    42   20   84 1    
    43   20   85 1    
    44   22   23 am   BACKBONE|DICT|INTERRES
    45   22   86 1    
    46   23   24 2    
    47   23   25 1    
    48   25   26 1    
    49   25   27 1    
    50   25   87 1    
    51   26   88 1    
    52   26   89 1    
    53   26   90 1    
    54   27   28 am   BACKBONE|DICT|INTERRES
    55   27   91 1    
    56   28   29 2    
    57   28   30 1    
    58   30   31 1    
    59   30   32 1    
    60   30   92 1    
    61   31   93 1    
    62   31   94 1    
    63   31   95 1    
    64   32   33 am   BACKBONE|DICT|INTERRES
    65   32   96 1    
    66   33   34 2    
    67   33   35 1    
    68   35   36 1    
    69   35   37 1    
    70   35   97 1    
    71   36   98 1    
    72   36   99 1    
    73   36  100 1    
    74   37   38 am   BACKBONE|DICT|INTERRES
    75   37  101 1    
    76   38   39 2    
    77   38   40 1    
    78   40   41 1    
    79   40   42 1    
    80   40  102 1    
    81   41  103 1    
    82   41  104 1    
    83   41  105 1    
    84   42   43 am   BACKBONE|DICT|INTERRES
    85   42  106 1    
    86   43   44 2    
    87   43   45 1    
    88   45   46 1    
    89   45   49 1    
    90   45  107 1    
    91   46   47 1    
    92   46  108 1    
    93   46  109 1    
    94   47   48 1    
    95   48  110 1    
    96   48  111 1    
    97   49   50 am   BACKBONE|DICT|INTERRES
    98   49  112 1    
    99   50   51 2    
   100   50   52 1    
   101   52   53 1    
   102   52   54 1    
   103   52  113 1    
   104   53  114 1    
   105   53  115 1    
   106   53  116 1    
   107   54   55 am   BACKBONE|DICT|INTERRES
   108   54  117 1    
   109   55   56 2    
   110   55   57 1    
   111   57   58 1    
   112   57   59 1    
   113   57  118 1    
   114   58  119 1    
   115   58  120 1    
   116   58  121 1    
   117   59   60 am   BACKBONE|DICT|INTERRES
   118   59  122 1    
   119   60   61 2    
   120   60   62 1    
   121   62   63 1    
   122   62   64 1    
   123   62  123 1    
   124   63  124 1    
   125   63  125 1    
   126   63  126 1    
   127   64   65 am   BACKBONE|DICT|INTERRES
   128   64  127 1    
   129   65   66 2    
@<TRIPOS>SUBSTRUCTURE
     1 UNK         1 GROUP             0       ****    0 ROOT    
