@<TRIPOS>MOLECULE
3R135
127   129    1
SMALL
USER_CHARGES


@<TRIPOS>ATOM
      1 CA        -81.4249   26.5281  -68.3234 C.3       0 UNK        -0.1998 
      2 C         -82.2162   25.9412  -69.4823 C.2       0 UNK         0.4909 
      3 O         -83.1559   25.1774  -69.2592 O.2       0 UNK        -0.5240 
      4 N         -81.8428   26.2919  -70.7198 N.am      1 UNK        -0.4739 
      5 CA        -82.4658   25.8039  -71.9580 C.3       1 UNK         0.0864 
      6 C6        -82.2010   26.7546  -73.1528 C.3       11 UNK        -0.0881 
      7 S7        -80.4396   27.1661  -73.4165 S.3       11 UNK        -0.2682 
      8 C8        -80.4090   28.9340  -72.9890 C.3       11 UNK         0.0289 
      9 C9        -79.0810   29.5660  -73.3768 C.ar      11 UNK        -0.0687 
     10 C10       -79.0059   30.4438  -74.4630 C.ar      11 UNK        -0.0823 
     11 C11       -77.7862   31.0266  -74.8211 C.ar      11 UNK        -0.0830 
     12 C12       -76.6348   30.7129  -74.0925 C.ar      11 UNK        -0.1021 
     13 C13       -76.6968   29.8337  -73.0074 C.ar      11 UNK        -0.0753 
     14 C14       -77.9248   29.2706  -72.6491 C.ar      11 UNK        -0.0933 
     15 C15       -75.4331   29.4464  -72.2564 C.3       11 UNK         0.0166 
     16 S16       -74.5593   30.8763  -71.5456 S.3       11 UNK        -0.2615 
     17 C17       -73.1523   30.0233  -70.7531 C.3       11 UNK        -0.0865 
     18 CA        -71.8579   30.0058  -71.6109 C.3       10 UNK         0.0862 
     19 C         -70.7175   29.2890  -70.8285 C.2       10 UNK         0.5551 
     20 N         -70.3486   28.0600  -71.1750 N.am      10 UNK        -0.7319 
     21 O         -70.1648   29.8594  -69.8914 O.2       10 UNK        -0.5018 
     22 N         -72.0930   29.4542  -72.9545 N.am      10 UNK        -0.4509 
     23 C         -71.2317   29.5090  -73.9768 C.2       10 UNK         0.4899 
     24 O         -70.1956   30.1751  -73.9531 O.2       10 UNK        -0.4839 
     25 CA        -71.5738   28.6868  -75.2391 C.3       9 UNK         0.0222 
     26 CB        -70.3187   28.0287  -75.8484 C.3       9 UNK        -0.1966 
     27 N         -72.6360   27.6798  -75.0826 N.am      9 UNK        -0.4218 
     28 C         -72.6767   26.6426  -74.2295 C.2       9 UNK         0.5020 
     29 O         -71.8515   26.4531  -73.3338 O.2       9 UNK        -0.5274 
     30 CA        -73.8374   25.6482  -74.4086 C.3       8 UNK         0.0270 
     31 CB        -75.1527   26.2108  -73.8454 C.3       8 UNK        -0.1976 
     32 N         -74.0332   25.2678  -75.8076 N.am      8 UNK        -0.4313 
     33 C         -73.1760   24.5295  -76.5269 C.2       8 UNK         0.5041 
     34 O         -72.1427   24.0348  -76.0749 O.2       8 UNK        -0.5577 
     35 CA        -73.5278   24.3137  -78.0059 C.3       7 UNK         0.0284 
     36 CB        -74.5847   23.2081  -78.1661 C.3       7 UNK        -0.1958 
     37 N         -74.0000   25.5530  -78.6259 N.am      7 UNK        -0.4454 
     38 C         -73.1918   26.5261  -79.0696 C.2       7 UNK         0.5089 
     39 O         -71.9632   26.4487  -79.0679 O.2       7 UNK        -0.5125 
     40 CA        -73.8566   27.8023  -79.6192 C.3       6 UNK         0.0408 
     41 CB        -73.9414   27.7413  -81.1526 C.3       6 UNK        -0.1791 
     42 N         -75.1923   28.0617  -79.0743 N.am      6 UNK        -0.4762 
     43 C         -75.4412   28.4188  -77.8056 C.2       6 UNK         0.5007 
     44 O         -74.5702   28.5349  -76.9433 O.2       6 UNK        -0.5032 
     45 CA        -76.9268   28.6029  -77.4232 C.3       5 UNK         0.0783 
     46 C46       -77.5057   29.9517  -77.9260 C.3       11 UNK        -0.0857 
     47 S47       -76.6205   31.4291  -77.3174 S.3       11 UNK        -0.2512 
     48 C48       -77.7145   32.0089  -75.9824 C.3       11 UNK         0.0225 
     49 N         -77.7602   27.4791  -77.8756 N.am      5 UNK        -0.4615 
     50 C         -77.5430   26.1881  -77.5935 C.2       4 UNK         0.5053 
     51 O         -76.5756   25.7803  -76.9463 O.2       4 UNK        -0.5105 
     52 CA        -78.5305   25.1735  -78.1937 C.3       4 UNK         0.0263 
     53 CB        -78.0789   24.7621  -79.6047 C.3       4 UNK        -0.1981 
     54 N         -78.6159   23.9801  -77.3495 N.am      4 UNK        -0.4224 
     55 C         -79.2164   23.9618  -76.1534 C.2       3 UNK         0.4895 
     56 O         -79.9306   24.8762  -75.7381 O.2       3 UNK        -0.5091 
     57 CA        -78.9638   22.7302  -75.2730 C.3       3 UNK         0.0250 
     58 CB        -77.4556   22.4577  -75.0835 C.3       3 UNK        -0.1996 
     59 N         -79.5918   22.9445  -73.9705 N.am      3 UNK        -0.4254 
     60 C         -79.9868   21.9858  -73.1270 C.2       2 UNK         0.5004 
     61 O         -79.8715   20.7823  -73.3643 O.2       2 UNK        -0.5226 
     62 CA        -80.5924   22.4223  -71.7798 C.3       2 UNK         0.0269 
     63 CB        -79.6013   22.1503  -70.6353 C.3       2 UNK        -0.1926 
     64 N         -81.0027   23.8292  -71.7168 N.am      2 UNK        -0.4687 
     65 C         -82.1089   24.3342  -72.2826 C.2       1 UNK         0.5165 
     66 O         -82.8584   23.6767  -73.0063 O.2       1 UNK        -0.5079 
     67 H67       -82.0841   27.0999  -67.6709 H         1 UNK         0.0900 
     68 H68       -80.6297   27.1902  -68.6658 H         1 UNK         0.0900 
     69 H69       -80.9723   25.7297  -67.7359 H         1 UNK         0.0900 
     70 H70       -81.0609   26.9179  -70.8511 H         1 UNK         0.2959 
     71 H71       -83.5461   25.8033  -71.7938 H         1 UNK         0.1079 
     72 H72       -82.5950   26.3300  -74.0786 H         1 UNK         0.0837 
     73 H73       -82.7640   27.6767  -73.0021 H         1 UNK         0.0837 
     74 H74       -80.5772   29.0553  -71.9180 H         1 UNK         0.0685 
     75 H75       -81.2314   29.4437  -73.4936 H         1 UNK         0.0685 
     76 H76       -79.8993   30.6768  -75.0262 H         1 UNK         0.1434 
     77 H77       -75.6860   31.1491  -74.3750 H         1 UNK         0.1329 
     78 H78       -77.9823   28.5820  -71.8172 H         1 UNK         0.1335 
     79 H79       -74.7713   28.9343  -72.9522 H         1 UNK         0.0680 
     80 H80       -75.6620   28.7371  -71.4593 H         1 UNK         0.0680 
     81 H81       -72.9607   30.5314  -69.8057 H         1 UNK         0.1032 
     82 H82       -73.4481   29.0071  -70.4844 H         1 UNK         0.1032 
     83 H83       -71.5387   31.0412  -71.7452 H         1 UNK         0.0461 
     84 H84       -70.8133   27.5762  -71.9359 H         1 UNK         0.3453 
     85 H85       -69.6097   27.6029  -70.6651 H         1 UNK         0.3453 
     86 H86       -72.9081   28.8729  -73.0602 H         1 UNK         0.2984 
     87 H87       -71.9550   29.4048  -75.9664 H         1 UNK         0.0554 
     88 H88       -70.5610   27.4848  -76.7617 H         1 UNK         0.0847 
     89 H89       -69.8558   27.3267  -75.1540 H         1 UNK         0.0847 
     90 H90       -69.5664   28.7741  -76.1090 H         1 UNK         0.0847 
     91 H91       -73.4023   27.7837  -75.7475 H         1 UNK         0.3141 
     92 H92       -73.5888   24.7447  -73.8477 H         1 UNK         0.0743 
     93 H93       -75.0446   26.4793  -72.7941 H         1 UNK         0.0784 
     94 H94       -75.4812   27.0983  -74.3882 H         1 UNK         0.0784 
     95 H95       -75.9550   25.4756  -73.9071 H         1 UNK         0.0784 
     96 H96       -74.8963   25.5795  -76.2508 H         1 UNK         0.3213 
     97 H97       -72.6218   23.9851  -78.5206 H         1 UNK         0.0855 
     98 H98       -75.5186   23.4597  -77.6649 H         1 UNK         0.0814 
     99 H99       -74.2305   22.2697  -77.7375 H         1 UNK         0.0814 
    100 H100      -74.8055   23.0201  -79.2168 H         1 UNK         0.0814 
    101 H101      -74.9951   25.7256  -78.6069 H         1 UNK         0.3105 
    102 H102      -73.2160   28.6444  -79.3481 H         1 UNK         0.0547 
    103 H103      -74.5851   26.9283  -81.4907 H         1 UNK         0.0837 
    104 H104      -74.3279   28.6725  -81.5671 H         1 UNK         0.0837 
    105 H105      -72.9558   27.5794  -81.5914 H         1 UNK         0.0837 
    106 H106      -75.9713   27.9700  -79.7105 H         1 UNK         0.3020 
    107 H107      -76.9703   28.6031  -76.3313 H         1 UNK         0.1245 
    108 H108      -78.5554   30.0325  -77.6392 H         1 UNK         0.0781 
    109 H109      -77.4957   29.9851  -79.0170 H         1 UNK         0.0781 
    110 H110      -77.3391   32.9637  -75.6119 H         1 UNK         0.0836 
    111 H111      -78.7057   32.2102  -76.3920 H         1 UNK         0.0836 
    112 H112      -78.5707   27.7215  -78.4268 H         1 UNK         0.3022 
    113 H113      -79.5196   25.6325  -78.2570 H         1 UNK         0.0747 
    114 H114      -78.0347   25.6251  -80.2703 H         1 UNK         0.0793 
    115 H115      -78.7736   24.0494  -80.0499 H         1 UNK         0.0793 
    116 H116      -77.0891   24.3046  -79.5990 H         1 UNK         0.0793 
    117 H117      -78.0375   23.1974  -77.6147 H         1 UNK         0.3047 
    118 H118      -79.4335   21.8733  -75.7605 H         1 UNK         0.0822 
    119 H119      -76.9759   22.1859  -76.0237 H         1 UNK         0.0807 
    120 H120      -77.2818   21.6322  -74.3931 H         1 UNK         0.0807 
    121 H121      -76.9360   23.3332  -74.6922 H         1 UNK         0.0807 
    122 H122      -79.7929   23.9132  -73.7529 H         1 UNK         0.2946 
    123 H123      -81.4775   21.8027  -71.6174 H         1 UNK         0.1144 
    124 H124      -79.2998   21.1019  -70.6188 H         1 UNK         0.0793 
    125 H125      -80.0449   22.3718  -69.6643 H         1 UNK         0.0793 
    126 H126      -78.6945   22.7481  -70.7365 H         1 UNK         0.0793 
    127 H127      -80.4432   24.4442  -71.1441 H         1 UNK         0.2896 
@<TRIPOS>BOND
     1    1    2 1    
     2    1   67 1    
     3    1   68 1    
     4    1   69 1    
     5    2    3 2    
     6    2    4 am   BACKBONE|DICT|INTERRES
     7    4    5 1    
     8    4   70 1    
     9    5    6 1    
    10    5   65 1    
    11    5   71 1    
    12    6    7 1    
    13    6   72 1    
    14    6   73 1    
    15    7    8 1    
    16    8    9 1    
    17    8   74 1    
    18    8   75 1    
    19    9   10 ar   
    20    9   14 ar   
    21   10   11 ar   
    22   10   76 1    
    23   11   12 ar   
    24   11   48 1    
    25   12   13 ar   
    26   12   77 1    
    27   13   14 ar   
    28   13   15 1    
    29   14   78 1    
    30   15   16 1    
    31   15   79 1    
    32   15   80 1    
    33   16   17 1    
    34   17   18 1    
    35   17   81 1    
    36   17   82 1    
    37   18   19 1    
    38   18   22 1    
    39   18   83 1    
    40   19   20 am   BACKBONE|DICT|INTERRES
    41   19   21 2    
    42   20   84 1    
    43   20   85 1    
    44   22   23 am   BACKBONE|DICT|INTERRES
    45   22   86 1    
    46   23   24 2    
    47   23   25 1    
    48   25   26 1    
    49   25   27 1    
    50   25   87 1    
    51   26   88 1    
    52   26   89 1    
    53   26   90 1    
    54   27   28 am   BACKBONE|DICT|INTERRES
    55   27   91 1    
    56   28   29 2    
    57   28   30 1    
    58   30   31 1    
    59   30   32 1    
    60   30   92 1    
    61   31   93 1    
    62   31   94 1    
    63   31   95 1    
    64   32   33 am   BACKBONE|DICT|INTERRES
    65   32   96 1    
    66   33   34 2    
    67   33   35 1    
    68   35   36 1    
    69   35   37 1    
    70   35   97 1    
    71   36   98 1    
    72   36   99 1    
    73   36  100 1    
    74   37   38 am   BACKBONE|DICT|INTERRES
    75   37  101 1    
    76   38   39 2    
    77   38   40 1    
    78   40   41 1    
    79   40   42 1    
    80   40  102 1    
    81   41  103 1    
    82   41  104 1    
    83   41  105 1    
    84   42   43 am   BACKBONE|DICT|INTERRES
    85   42  106 1    
    86   43   44 2    
    87   43   45 1    
    88   45   46 1    
    89   45   49 1    
    90   45  107 1    
    91   46   47 1    
    92   46  108 1    
    93   46  109 1    
    94   47   48 1    
    95   48  110 1    
    96   48  111 1    
    97   49   50 am   BACKBONE|DICT|INTERRES
    98   49  112 1    
    99   50   51 2    
   100   50   52 1    
   101   52   53 1    
   102   52   54 1    
   103   52  113 1    
   104   53  114 1    
   105   53  115 1    
   106   53  116 1    
   107   54   55 am   BACKBONE|DICT|INTERRES
   108   54  117 1    
   109   55   56 2    
   110   55   57 1    
   111   57   58 1    
   112   57   59 1    
   113   57  118 1    
   114   58  119 1    
   115   58  120 1    
   116   58  121 1    
   117   59   60 am   BACKBONE|DICT|INTERRES
   118   59  122 1    
   119   60   61 2    
   120   60   62 1    
   121   62   63 1    
   122   62   64 1    
   123   62  123 1    
   124   63  124 1    
   125   63  125 1    
   126   63  126 1    
   127   64   65 am   BACKBONE|DICT|INTERRES
   128   64  127 1    
   129   65   66 2    
@<TRIPOS>SUBSTRUCTURE
     1 UNK         1 GROUP             0       ****    0 ROOT    
