@<TRIPOS>MOLECULE
3R135
127   129    1
SMALL
USER_CHARGES


@<TRIPOS>ATOM
      1 CA        -85.8505   27.0927  -73.9226 C.3       0 UNK        -0.1998 
      2 C         -84.6678   27.8096  -74.5560 C.2       0 UNK         0.4909 
      3 O         -84.8523   28.5822  -75.4969 O.2       0 UNK        -0.5240 
      4 N         -83.4541   27.5606  -74.0462 N.am      1 UNK        -0.4739 
      5 CA        -82.2009   28.1621  -74.5272 C.3       1 UNK         0.0864 
      6 C6        -81.0427   27.9773  -73.5134 C.3       11 UNK        -0.0881 
      7 S7        -81.4459   28.5906  -71.8418 S.3       11 UNK        -0.2682 
      8 C8        -80.2079   29.9099  -71.6069 C.3       11 UNK         0.0289 
      9 C9        -78.7748   29.3878  -71.5493 C.ar      11 UNK        -0.0687 
     10 C10       -78.4273   28.3488  -70.6781 C.ar      11 UNK        -0.0823 
     11 C11       -77.1124   27.8773  -70.6138 C.ar      11 UNK        -0.0830 
     12 C12       -76.1377   28.4759  -71.4176 C.ar      11 UNK        -0.1021 
     13 C13       -76.4638   29.5183  -72.2880 C.ar      11 UNK        -0.0753 
     14 C14       -77.7861   29.9682  -72.3509 C.ar      11 UNK        -0.0933 
     15 C15       -75.3962   30.1398  -73.1788 C.3       11 UNK         0.0166 
     16 S16       -74.3551   31.3350  -72.2834 S.3       11 UNK        -0.2615 
     17 C17       -72.9751   30.2862  -71.6973 C.3       11 UNK        -0.0865 
     18 CA        -71.7187   30.3943  -72.6019 C.3       10 UNK         0.0862 
     19 C         -70.4783   29.7041  -71.9587 C.2       10 UNK         0.5551 
     20 N         -69.7536   28.8322  -72.6516 N.am      10 UNK        -0.7319 
     21 O         -70.1568   29.9756  -70.8045 O.2       10 UNK        -0.5018 
     22 N         -72.0049   29.9372  -73.9705 N.am      10 UNK        -0.4509 
     23 C         -71.4464   30.4364  -75.0780 C.2       10 UNK         0.4899 
     24 O         -70.6612   31.3861  -75.0838 O.2       10 UNK        -0.4839 
     25 CA        -71.8343   29.7434  -76.3985 C.3       9 UNK         0.0222 
     26 CB        -70.8960   30.1125  -77.5671 C.3       9 UNK        -0.1966 
     27 N         -71.9592   28.2836  -76.2822 N.am      9 UNK        -0.4218 
     28 C         -71.0089   27.4137  -75.8976 C.2       9 UNK         0.5020 
     29 O         -69.8979   27.7612  -75.4938 O.2       9 UNK        -0.5274 
     30 CA        -71.3312   25.9044  -75.9454 C.3       8 UNK         0.0270 
     31 CB        -71.2795   25.2933  -74.5344 C.3       8 UNK        -0.1976 
     32 N         -72.6216   25.5807  -76.5596 N.am      8 UNK        -0.4313 
     33 C         -72.9126   25.6923  -77.8634 C.2       8 UNK         0.5041 
     34 O         -72.0858   25.9909  -78.7255 O.2       8 UNK        -0.5577 
     35 CA        -74.3845   25.4870  -78.2699 C.3       7 UNK         0.0284 
     36 CB        -74.6257   24.0333  -78.7032 C.3       7 UNK        -0.1958 
     37 N         -75.3422   25.8567  -77.2195 N.am      7 UNK        -0.4454 
     38 C         -75.4716   27.0864  -76.6977 C.2       7 UNK         0.5089 
     39 O         -74.7994   28.0556  -77.0492 O.2       7 UNK        -0.5125 
     40 CA        -76.4826   27.2488  -75.5545 C.3       6 UNK         0.0408 
     41 CB        -77.9084   27.3998  -76.1016 C.3       6 UNK        -0.1791 
     42 N         -76.4199   26.1298  -74.6135 N.am      6 UNK        -0.4762 
     43 C         -75.4205   25.9312  -73.7399 C.2       6 UNK         0.5007 
     44 O         -74.4605   26.6927  -73.6170 O.2       6 UNK        -0.5032 
     45 CA        -75.4783   24.6307  -72.9081 C.3       5 UNK         0.0783 
     46 C46       -76.3709   24.7795  -71.6484 C.3       11 UNK        -0.0857 
     47 S47       -75.4978   25.5812  -70.2636 S.3       11 UNK        -0.2512 
     48 C48       -76.7603   26.7494  -69.6449 C.3       11 UNK         0.0225 
     49 N         -75.8991   23.4829  -73.7176 N.am      5 UNK        -0.4615 
     50 C         -75.2263   22.9922  -74.7677 C.2       4 UNK         0.5053 
     51 O         -74.1353   23.4202  -75.1413 O.2       4 UNK        -0.5105 
     52 CA        -75.9106   21.8648  -75.5644 C.3       4 UNK         0.0263 
     53 CB        -75.5003   20.4928  -75.0069 C.3       4 UNK        -0.1981 
     54 N         -77.3762   21.9599  -75.6029 N.am      4 UNK        -0.4224 
     55 C         -78.0706   23.0143  -76.0541 C.2       3 UNK         0.4895 
     56 O         -77.5465   24.0418  -76.4950 O.2       3 UNK        -0.5091 
     57 CA        -79.5981   22.9258  -75.9429 C.3       3 UNK         0.0250 
     58 CB        -80.0459   22.8081  -74.4709 C.3       3 UNK        -0.1996 
     59 N         -80.1845   24.1250  -76.5351 N.am      3 UNK        -0.4254 
     60 C         -81.4347   24.2448  -76.9904 C.2       2 UNK         0.5004 
     61 O         -82.2600   23.3294  -76.9872 O.2       2 UNK        -0.5226 
     62 CA        -81.8482   25.6506  -77.4403 C.3       2 UNK         0.0269 
     63 CB        -83.0493   25.6424  -78.4047 C.3       2 UNK        -0.1926 
     64 N         -82.2020   26.3923  -76.2339 N.am      2 UNK        -0.4687 
     65 C         -81.7786   27.6206  -75.9115 C.2       1 UNK         0.5165 
     66 O         -81.0718   28.3130  -76.6441 O.2       1 UNK        -0.5079 
     67 H67       -86.3565   26.4759  -74.6647 H         1 UNK         0.0900 
     68 H68       -85.5436   26.4490  -73.0984 H         1 UNK         0.0900 
     69 H69       -86.5660   27.8185  -73.5370 H         1 UNK         0.0900 
     70 H70       -83.3638   26.9454  -73.2498 H         1 UNK         0.2959 
     71 H71       -82.3736   29.2340  -74.6489 H         1 UNK         0.1079 
     72 H72       -80.7688   26.9240  -73.4250 H         1 UNK         0.0837 
     73 H73       -80.1498   28.4930  -73.8703 H         1 UNK         0.0837 
     74 H74       -80.3248   30.6457  -72.4041 H         1 UNK         0.0685 
     75 H75       -80.4255   30.4305  -70.6735 H         1 UNK         0.0685 
     76 H76       -79.1880   27.9067  -70.0490 H         1 UNK         0.1434 
     77 H77       -75.1213   28.1170  -71.3742 H         1 UNK         0.1329 
     78 H78       -78.0438   30.7754  -73.0228 H         1 UNK         0.1335 
     79 H79       -74.7727   29.3601  -73.6154 H         1 UNK         0.0680 
     80 H80       -75.8643   30.6532  -74.0199 H         1 UNK         0.0680 
     81 H81       -72.7422   30.6086  -70.6807 H         1 UNK         0.1032 
     82 H82       -73.2870   29.2463  -71.6140 H         1 UNK         0.1032 
     83 H83       -71.4569   31.4532  -72.6473 H         1 UNK         0.0461 
     84 H84       -69.9675   28.6169  -73.6184 H         1 UNK         0.3453 
     85 H85       -68.9535   28.4056  -72.2129 H         1 UNK         0.3453 
     86 H86       -72.6108   29.1344  -74.0555 H         1 UNK         0.2984 
     87 H87       -72.8302   30.1113  -76.6492 H         1 UNK         0.0554 
     88 H88       -70.8978   31.1881  -77.7476 H         1 UNK         0.0847 
     89 H89       -71.2080   29.6296  -78.4932 H         1 UNK         0.0847 
     90 H90       -69.8654   29.8179  -77.3661 H         1 UNK         0.0847 
     91 H91       -72.8626   27.9148  -76.5647 H         1 UNK         0.3141 
     92 H92       -70.5501   25.4333  -76.5454 H         1 UNK         0.0743 
     93 H93       -70.3013   25.4460  -74.0764 H         1 UNK         0.0784 
     94 H94       -72.0200   25.7412  -73.8722 H         1 UNK         0.0784 
     95 H95       -71.4588   24.2182  -74.5598 H         1 UNK         0.0784 
     96 H96       -73.3468   25.2394  -75.9378 H         1 UNK         0.3213 
     97 H97       -74.5814   26.1352  -79.1265 H         1 UNK         0.0855 
     98 H98       -74.3352   23.3309  -77.9231 H         1 UNK         0.0814 
     99 H99       -74.0354   23.7917  -79.5880 H         1 UNK         0.0814 
    100 H100      -75.6723   23.8543  -78.9507 H         1 UNK         0.0814 
    101 H101      -75.9718   25.1300  -76.8894 H         1 UNK         0.3105 
    102 H102      -76.2392   28.1626  -75.0128 H         1 UNK         0.0547 
    103 H103      -78.6363   27.4497  -75.2944 H         1 UNK         0.0837 
    104 H104      -78.0048   28.3189  -76.6810 H         1 UNK         0.0837 
    105 H105      -78.1890   26.5773  -76.7582 H         1 UNK         0.0837 
    106 H106      -77.1209   25.4099  -74.7195 H         1 UNK         0.3020 
    107 H107      -74.4559   24.4179  -72.5859 H         1 UNK         0.1245 
    108 H108      -76.6743   23.7966  -71.2840 H         1 UNK         0.0781 
    109 H109      -77.2990   25.3073  -71.8773 H         1 UNK         0.0781 
    110 H110      -76.3938   27.1957  -68.7197 H         1 UNK         0.0836 
    111 H111      -77.6535   26.1816  -69.3789 H         1 UNK         0.0836 
    112 H112      -76.7830   23.0594  -73.4787 H         1 UNK         0.3022 
    113 H113      -75.5577   21.9285  -76.5942 H         1 UNK         0.0747 
    114 H114      -75.8915   19.6810  -75.6205 H         1 UNK         0.0793 
    115 H115      -74.4144   20.3878  -74.9901 H         1 UNK         0.0793 
    116 H116      -75.8576   20.3465  -73.9867 H         1 UNK         0.0793 
    117 H117      -77.8856   21.1580  -75.2598 H         1 UNK         0.3047 
    118 H118      -79.9269   22.0483  -76.5038 H         1 UNK         0.0822 
    119 H119      -79.6514   21.9072  -74.0002 H         1 UNK         0.0807 
    120 H120      -81.1317   22.7543  -74.3897 H         1 UNK         0.0807 
    121 H121      -79.7126   23.6618  -73.8792 H         1 UNK         0.0807 
    122 H122      -79.5380   24.8985  -76.6185 H         1 UNK         0.2946 
    123 H123      -80.9976   26.1113  -77.9487 H         1 UNK         0.1144 
    124 H124      -83.2968   26.6523  -78.7323 H         1 UNK         0.0793 
    125 H125      -83.9403   25.2157  -77.9424 H         1 UNK         0.0793 
    126 H126      -82.8287   25.0554  -79.2971 H         1 UNK         0.0793 
    127 H127      -82.7639   25.8913  -75.5592 H         1 UNK         0.2896 
@<TRIPOS>BOND
     1    1    2 1    
     2    1   67 1    
     3    1   68 1    
     4    1   69 1    
     5    2    3 2    
     6    2    4 am   BACKBONE|DICT|INTERRES
     7    4    5 1    
     8    4   70 1    
     9    5    6 1    
    10    5   65 1    
    11    5   71 1    
    12    6    7 1    
    13    6   72 1    
    14    6   73 1    
    15    7    8 1    
    16    8    9 1    
    17    8   74 1    
    18    8   75 1    
    19    9   10 ar   
    20    9   14 ar   
    21   10   11 ar   
    22   10   76 1    
    23   11   12 ar   
    24   11   48 1    
    25   12   13 ar   
    26   12   77 1    
    27   13   14 ar   
    28   13   15 1    
    29   14   78 1    
    30   15   16 1    
    31   15   79 1    
    32   15   80 1    
    33   16   17 1    
    34   17   18 1    
    35   17   81 1    
    36   17   82 1    
    37   18   19 1    
    38   18   22 1    
    39   18   83 1    
    40   19   20 am   BACKBONE|DICT|INTERRES
    41   19   21 2    
    42   20   84 1    
    43   20   85 1    
    44   22   23 am   BACKBONE|DICT|INTERRES
    45   22   86 1    
    46   23   24 2    
    47   23   25 1    
    48   25   26 1    
    49   25   27 1    
    50   25   87 1    
    51   26   88 1    
    52   26   89 1    
    53   26   90 1    
    54   27   28 am   BACKBONE|DICT|INTERRES
    55   27   91 1    
    56   28   29 2    
    57   28   30 1    
    58   30   31 1    
    59   30   32 1    
    60   30   92 1    
    61   31   93 1    
    62   31   94 1    
    63   31   95 1    
    64   32   33 am   BACKBONE|DICT|INTERRES
    65   32   96 1    
    66   33   34 2    
    67   33   35 1    
    68   35   36 1    
    69   35   37 1    
    70   35   97 1    
    71   36   98 1    
    72   36   99 1    
    73   36  100 1    
    74   37   38 am   BACKBONE|DICT|INTERRES
    75   37  101 1    
    76   38   39 2    
    77   38   40 1    
    78   40   41 1    
    79   40   42 1    
    80   40  102 1    
    81   41  103 1    
    82   41  104 1    
    83   41  105 1    
    84   42   43 am   BACKBONE|DICT|INTERRES
    85   42  106 1    
    86   43   44 2    
    87   43   45 1    
    88   45   46 1    
    89   45   49 1    
    90   45  107 1    
    91   46   47 1    
    92   46  108 1    
    93   46  109 1    
    94   47   48 1    
    95   48  110 1    
    96   48  111 1    
    97   49   50 am   BACKBONE|DICT|INTERRES
    98   49  112 1    
    99   50   51 2    
   100   50   52 1    
   101   52   53 1    
   102   52   54 1    
   103   52  113 1    
   104   53  114 1    
   105   53  115 1    
   106   53  116 1    
   107   54   55 am   BACKBONE|DICT|INTERRES
   108   54  117 1    
   109   55   56 2    
   110   55   57 1    
   111   57   58 1    
   112   57   59 1    
   113   57  118 1    
   114   58  119 1    
   115   58  120 1    
   116   58  121 1    
   117   59   60 am   BACKBONE|DICT|INTERRES
   118   59  122 1    
   119   60   61 2    
   120   60   62 1    
   121   62   63 1    
   122   62   64 1    
   123   62  123 1    
   124   63  124 1    
   125   63  125 1    
   126   63  126 1    
   127   64   65 am   BACKBONE|DICT|INTERRES
   128   64  127 1    
   129   65   66 2    
@<TRIPOS>SUBSTRUCTURE
     1 UNK         1 GROUP             0       ****    0 ROOT    
