@<TRIPOS>MOLECULE
3R135
127   129    1
SMALL
USER_CHARGES


@<TRIPOS>ATOM
      1 CA        -77.4914   25.8655  -71.7887 C.3       0 UNK        -0.1998 
      2 C         -78.9720   25.7773  -71.4489 C.2       0 UNK         0.4909 
      3 O         -79.4231   24.7441  -70.9543 O.2       0 UNK        -0.5240 
      4 N         -79.7339   26.8474  -71.7156 N.am      1 UNK        -0.4739 
      5 CA        -81.1839   26.9205  -71.4735 C.3       1 UNK         0.0864 
      6 C6        -81.6916   28.3823  -71.3616 C.3       11 UNK        -0.0881 
      7 S7        -81.1687   29.1717  -69.7977 S.3       11 UNK        -0.2682 
      8 C8        -80.1857   30.5982  -70.3595 C.3       11 UNK         0.0289 
      9 C9        -78.8465   30.1589  -70.9259 C.ar      11 UNK        -0.0687 
     10 C10       -78.6753   30.0435  -72.3062 C.ar      11 UNK        -0.0823 
     11 C11       -77.4722   29.5680  -72.8307 C.ar      11 UNK        -0.0830 
     12 C12       -76.4262   29.2315  -71.9681 C.ar      11 UNK        -0.1021 
     13 C13       -76.5655   29.3973  -70.5879 C.ar      11 UNK        -0.0753 
     14 C14       -77.7827   29.8532  -70.0711 C.ar      11 UNK        -0.0933 
     15 C15       -75.4082   29.0759  -69.6542 C.3       11 UNK         0.0166 
     16 S16       -74.1725   30.4175  -69.6312 S.3       11 UNK        -0.2615 
     17 C17       -73.0809   29.9689  -71.0261 C.3       11 UNK        -0.0865 
     18 CA        -73.3320   30.8071  -72.3095 C.3       10 UNK         0.0862 
     19 C         -72.6213   32.1876  -72.2545 C.2       10 UNK         0.5551 
     20 N         -73.2983   33.2161  -71.7633 N.am      10 UNK        -0.7319 
     21 O         -71.4549   32.3246  -72.6197 O.2       10 UNK        -0.5018 
     22 N         -72.9530   30.0272  -73.4933 N.am      10 UNK        -0.4509 
     23 C         -73.2485   30.3110  -74.7646 C.2       10 UNK         0.4899 
     24 O         -73.9774   31.2426  -75.1047 O.2       10 UNK        -0.4839 
     25 CA        -72.6462   29.3924  -75.8491 C.3       9 UNK         0.0222 
     26 CB        -71.2120   29.8294  -76.2040 C.3       9 UNK        -0.1966 
     27 N         -72.7119   27.9474  -75.5630 N.am      9 UNK        -0.4218 
     28 C         -72.1160   27.2569  -74.5765 C.2       9 UNK         0.5020 
     29 O         -71.3708   27.7638  -73.7363 O.2       9 UNK        -0.5274 
     30 CA        -72.4291   25.7568  -74.4617 C.3       8 UNK         0.0270 
     31 CB        -73.6205   25.5336  -73.5134 C.3       8 UNK        -0.1976 
     32 N         -72.6877   25.0876  -75.7386 N.am      8 UNK        -0.4313 
     33 C         -71.7497   24.8100  -76.6562 C.2       8 UNK         0.5041 
     34 O         -70.5787   25.1816  -76.5717 O.2       8 UNK        -0.5577 
     35 CA        -72.1777   23.9522  -77.8571 C.3       7 UNK         0.0284 
     36 CB        -72.2734   22.4715  -77.4519 C.3       7 UNK        -0.1958 
     37 N         -73.4670   24.3902  -78.3896 N.am      7 UNK        -0.4454 
     38 C         -73.6328   25.0827  -79.5248 C.2       7 UNK         0.5089 
     39 O         -72.7182   25.3606  -80.3014 O.2       7 UNK        -0.5125 
     40 CA        -75.0617   25.5632  -79.8525 C.3       6 UNK         0.0408 
     41 CB        -75.7514   24.5766  -80.8073 C.3       6 UNK        -0.1791 
     42 N         -75.9079   25.7600  -78.6711 N.am      6 UNK        -0.4762 
     43 C         -75.6477   26.6303  -77.6824 C.2       6 UNK         0.5007 
     44 O         -74.6913   27.4046  -77.6892 O.2       6 UNK        -0.5032 
     45 CA        -76.5558   26.5985  -76.4384 C.3       5 UNK         0.0783 
     46 C46       -77.6175   27.7177  -76.5330 C.3       11 UNK        -0.0857 
     47 S47       -78.3683   28.0352  -74.9109 S.3       11 UNK        -0.2512 
     48 C48       -77.3175   29.3964  -74.3287 C.3       11 UNK         0.0225 
     49 N         -77.1531   25.2817  -76.1715 N.am      5 UNK        -0.4615 
     50 C         -76.4768   24.1288  -76.0367 C.2       4 UNK         0.5053 
     51 O         -75.2474   24.0631  -76.0519 O.2       4 UNK        -0.5105 
     52 CA        -77.2799   22.8195  -75.9212 C.3       4 UNK         0.0263 
     53 CB        -77.3388   22.3695  -74.4529 C.3       4 UNK        -0.1981 
     54 N         -78.6430   22.8933  -76.4532 N.am      4 UNK        -0.4224 
     55 C         -78.9997   23.2648  -77.6927 C.2       3 UNK         0.4895 
     56 O         -78.1957   23.4807  -78.6008 O.2       3 UNK        -0.5091 
     57 CA        -80.5043   23.5030  -77.9434 C.3       3 UNK         0.0250 
     58 CB        -81.1102   22.3205  -78.7164 C.3       3 UNK        -0.1996 
     59 N         -81.3065   23.7510  -76.7329 N.am      3 UNK        -0.4254 
     60 C         -81.0768   24.7113  -75.8233 C.2       2 UNK         0.5004 
     61 O         -80.1448   25.5122  -75.9121 O.2       2 UNK        -0.5226 
     62 CA        -81.9902   24.7420  -74.5875 C.3       2 UNK         0.0269 
     63 CB        -82.1834   23.3312  -73.9827 C.3       2 UNK        -0.1926 
     64 N         -81.4061   25.6401  -73.5887 N.am      2 UNK        -0.4687 
     65 C         -82.0178   26.1052  -72.4915 C.2       1 UNK         0.5165 
     66 O         -83.2070   25.8922  -72.2479 O.2       1 UNK        -0.5079 
     67 H67       -76.9255   26.1983  -70.9191 H         1 UNK         0.0900 
     68 H68       -77.3075   26.5603  -72.6056 H         1 UNK         0.0900 
     69 H69       -77.1106   24.8906  -72.0918 H         1 UNK         0.0900 
     70 H70       -79.3061   27.6798  -72.0993 H         1 UNK         0.2959 
     71 H71       -81.3756   26.4384  -70.5119 H         1 UNK         0.1079 
     72 H72       -81.3735   28.9716  -72.2221 H         1 UNK         0.0837 
     73 H73       -82.7830   28.4157  -71.3686 H         1 UNK         0.0837 
     74 H74       -80.7541   31.1702  -71.0946 H         1 UNK         0.0685 
     75 H75       -80.0206   31.2673  -69.5138 H         1 UNK         0.0685 
     76 H76       -79.4874   30.2927  -72.9757 H         1 UNK         0.1434 
     77 H77       -75.4979   28.8514  -72.3707 H         1 UNK         0.1329 
     78 H78       -77.9092   29.9596  -69.0023 H         1 UNK         0.1335 
     79 H79       -75.7789   28.9351  -68.6378 H         1 UNK         0.0680 
     80 H80       -74.9462   28.1287  -69.9356 H         1 UNK         0.0680 
     81 H81       -73.2182   28.9069  -71.2349 H         1 UNK         0.1032 
     82 H82       -72.0420   30.0559  -70.7013 H         1 UNK         0.1032 
     83 H83       -74.4020   30.9977  -72.4016 H         1 UNK         0.0461 
     84 H84       -72.8521   34.1180  -71.7056 H         1 UNK         0.3453 
     85 H85       -74.2435   33.1000  -71.4319 H         1 UNK         0.3453 
     86 H86       -72.3016   29.2595  -73.3432 H         1 UNK         0.2984 
     87 H87       -73.2548   29.5353  -76.7433 H         1 UNK         0.0554 
     88 H88       -70.8102   29.2383  -77.0270 H         1 UNK         0.0847 
     89 H89       -70.5321   29.7309  -75.3572 H         1 UNK         0.0847 
     90 H90       -71.1902   30.8749  -76.5143 H         1 UNK         0.0847 
     91 H91       -73.3077   27.4342  -76.2047 H         1 UNK         0.3141 
     92 H92       -71.5544   25.2805  -74.0132 H         1 UNK         0.0743 
     93 H93       -74.5368   25.9832  -73.8943 H         1 UNK         0.0784 
     94 H94       -73.8106   24.4712  -73.3586 H         1 UNK         0.0784 
     95 H95       -73.4274   25.9726  -72.5334 H         1 UNK         0.0784 
     96 H96       -73.6242   24.7046  -75.8655 H         1 UNK         0.3213 
     97 H97       -71.4011   24.0409  -78.6201 H         1 UNK         0.0855 
     98 H98       -73.0394   22.3045  -76.6933 H         1 UNK         0.0814 
     99 H99       -71.3260   22.1168  -77.0435 H         1 UNK         0.0814 
    100 H100      -72.5112   21.8428  -78.3100 H         1 UNK         0.0814 
    101 H101      -74.2768   24.2310  -77.8002 H         1 UNK         0.3105 
    102 H102      -74.9748   26.5263  -80.3597 H         1 UNK         0.0547 
    103 H103      -75.1625   24.4330  -81.7143 H         1 UNK         0.0837 
    104 H104      -75.8857   23.5970  -80.3464 H         1 UNK         0.0837 
    105 H105      -76.7330   24.9389  -81.1130 H         1 UNK         0.0837 
    106 H106      -76.7055   25.1403  -78.5763 H         1 UNK         0.3020 
    107 H107      -75.9032   26.8216  -75.5934 H         1 UNK         0.1245 
    108 H108      -77.1908   28.6518  -76.9057 H         1 UNK         0.0781 
    109 H109      -78.4061   27.4426  -77.2361 H         1 UNK         0.0781 
    110 H110      -77.5932   30.3197  -74.8404 H         1 UNK         0.0836 
    111 H111      -76.2755   29.1972  -74.5845 H         1 UNK         0.0836 
    112 H112      -78.1683   25.2663  -76.1221 H         1 UNK         0.3022 
    113 H113      -76.7444   22.0620  -76.4966 H         1 UNK         0.0747 
    114 H114      -77.8060   21.3893  -74.3558 H         1 UNK         0.0793 
    115 H115      -76.3372   22.2915  -74.0269 H         1 UNK         0.0793 
    116 H116      -77.9011   23.0730  -73.8371 H         1 UNK         0.0793 
    117 H117      -79.3867   22.7406  -75.7891 H         1 UNK         0.3047 
    118 H118      -80.5806   24.3956  -78.5677 H         1 UNK         0.0822 
    119 H119      -82.1432   22.5193  -79.0027 H         1 UNK         0.0807 
    120 H120      -81.0937   21.4024  -78.1278 H         1 UNK         0.0807 
    121 H121      -80.5542   22.1282  -79.6354 H         1 UNK         0.0807 
    122 H122      -82.0887   23.1296  -76.5845 H         1 UNK         0.2946 
    123 H123      -82.9563   25.1442  -74.9000 H         1 UNK         0.1144 
    124 H124      -82.6689   22.6516  -74.6834 H         1 UNK         0.0793 
    125 H125      -82.8152   23.3560  -73.0950 H         1 UNK         0.0793 
    126 H126      -81.2306   22.8853  -73.6943 H         1 UNK         0.0793 
    127 H127      -80.4506   25.9169  -73.7807 H         1 UNK         0.2896 
@<TRIPOS>BOND
     1    1    2 1    
     2    1   67 1    
     3    1   68 1    
     4    1   69 1    
     5    2    3 2    
     6    2    4 am   BACKBONE|DICT|INTERRES
     7    4    5 1    
     8    4   70 1    
     9    5    6 1    
    10    5   65 1    
    11    5   71 1    
    12    6    7 1    
    13    6   72 1    
    14    6   73 1    
    15    7    8 1    
    16    8    9 1    
    17    8   74 1    
    18    8   75 1    
    19    9   10 ar   
    20    9   14 ar   
    21   10   11 ar   
    22   10   76 1    
    23   11   12 ar   
    24   11   48 1    
    25   12   13 ar   
    26   12   77 1    
    27   13   14 ar   
    28   13   15 1    
    29   14   78 1    
    30   15   16 1    
    31   15   79 1    
    32   15   80 1    
    33   16   17 1    
    34   17   18 1    
    35   17   81 1    
    36   17   82 1    
    37   18   19 1    
    38   18   22 1    
    39   18   83 1    
    40   19   20 am   BACKBONE|DICT|INTERRES
    41   19   21 2    
    42   20   84 1    
    43   20   85 1    
    44   22   23 am   BACKBONE|DICT|INTERRES
    45   22   86 1    
    46   23   24 2    
    47   23   25 1    
    48   25   26 1    
    49   25   27 1    
    50   25   87 1    
    51   26   88 1    
    52   26   89 1    
    53   26   90 1    
    54   27   28 am   BACKBONE|DICT|INTERRES
    55   27   91 1    
    56   28   29 2    
    57   28   30 1    
    58   30   31 1    
    59   30   32 1    
    60   30   92 1    
    61   31   93 1    
    62   31   94 1    
    63   31   95 1    
    64   32   33 am   BACKBONE|DICT|INTERRES
    65   32   96 1    
    66   33   34 2    
    67   33   35 1    
    68   35   36 1    
    69   35   37 1    
    70   35   97 1    
    71   36   98 1    
    72   36   99 1    
    73   36  100 1    
    74   37   38 am   BACKBONE|DICT|INTERRES
    75   37  101 1    
    76   38   39 2    
    77   38   40 1    
    78   40   41 1    
    79   40   42 1    
    80   40  102 1    
    81   41  103 1    
    82   41  104 1    
    83   41  105 1    
    84   42   43 am   BACKBONE|DICT|INTERRES
    85   42  106 1    
    86   43   44 2    
    87   43   45 1    
    88   45   46 1    
    89   45   49 1    
    90   45  107 1    
    91   46   47 1    
    92   46  108 1    
    93   46  109 1    
    94   47   48 1    
    95   48  110 1    
    96   48  111 1    
    97   49   50 am   BACKBONE|DICT|INTERRES
    98   49  112 1    
    99   50   51 2    
   100   50   52 1    
   101   52   53 1    
   102   52   54 1    
   103   52  113 1    
   104   53  114 1    
   105   53  115 1    
   106   53  116 1    
   107   54   55 am   BACKBONE|DICT|INTERRES
   108   54  117 1    
   109   55   56 2    
   110   55   57 1    
   111   57   58 1    
   112   57   59 1    
   113   57  118 1    
   114   58  119 1    
   115   58  120 1    
   116   58  121 1    
   117   59   60 am   BACKBONE|DICT|INTERRES
   118   59  122 1    
   119   60   61 2    
   120   60   62 1    
   121   62   63 1    
   122   62   64 1    
   123   62  123 1    
   124   63  124 1    
   125   63  125 1    
   126   63  126 1    
   127   64   65 am   BACKBONE|DICT|INTERRES
   128   64  127 1    
   129   65   66 2    
@<TRIPOS>SUBSTRUCTURE
     1 UNK         1 GROUP             0       ****    0 ROOT    
