@<TRIPOS>MOLECULE
3R135
127   129    1
SMALL
USER_CHARGES


@<TRIPOS>ATOM
      1 CA        -80.5572   24.6286  -71.2882 C.3       0 UNK        -0.1998 
      2 C         -81.0198   25.3458  -72.5470 C.2       0 UNK         0.4909 
      3 O         -81.8462   24.8110  -73.2872 O.2       0 UNK        -0.5240 
      4 N         -80.4918   26.5499  -72.8057 N.am      1 UNK        -0.4739 
      5 CA        -80.7731   27.3351  -74.0110 C.3       1 UNK         0.0864 
      6 C6        -80.1951   28.7695  -73.9200 C.3       11 UNK        -0.0881 
      7 S7        -81.2821   29.9186  -73.0036 S.3       11 UNK        -0.2682 
      8 C8        -80.9198   29.5948  -71.2432 C.3       11 UNK         0.0289 
      9 C9        -79.4316   29.6010  -70.9233 C.ar      11 UNK        -0.0687 
     10 C10       -78.8265   28.4488  -70.4177 C.ar      11 UNK        -0.0823 
     11 C11       -77.4497   28.4140  -70.1936 C.ar      11 UNK        -0.0830 
     12 C12       -76.6873   29.5649  -70.4114 C.ar      11 UNK        -0.1021 
     13 C13       -77.2755   30.7311  -70.9182 C.ar      11 UNK        -0.0753 
     14 C14       -78.6538   30.7395  -71.1595 C.ar      11 UNK        -0.0933 
     15 C15       -76.4713   31.9955  -71.2371 C.3       11 UNK         0.0166 
     16 S16       -74.6560   31.7964  -71.3576 S.3       11 UNK        -0.2615 
     17 C17       -74.4834   30.7084  -72.8165 C.3       11 UNK        -0.0865 
     18 CA        -73.0486   30.1283  -72.9770 C.3       10 UNK         0.0862 
     19 C         -72.7351   28.9220  -72.0376 C.2       10 UNK         0.5551 
     20 N         -71.9060   27.9672  -72.4456 N.am      10 UNK        -0.7319 
     21 O         -73.2312   28.8432  -70.9179 O.2       10 UNK        -0.5018 
     22 N         -72.7864   29.7969  -74.3834 N.am      10 UNK        -0.4509 
     23 C         -71.8456   30.3321  -75.1668 C.2       10 UNK         0.4899 
     24 O         -71.1213   31.2699  -74.8287 O.2       10 UNK        -0.4839 
     25 CA        -71.6896   29.6993  -76.5662 C.3       9 UNK         0.0222 
     26 CB        -70.3652   30.0899  -77.2556 C.3       9 UNK        -0.1966 
     27 N         -71.8635   28.2391  -76.5775 N.am      9 UNK        -0.4218 
     28 C         -71.1602   27.3243  -75.8886 C.2       9 UNK         0.5020 
     29 O         -70.2605   27.6180  -75.0996 O.2       9 UNK        -0.5274 
     30 CA        -71.5227   25.8328  -76.0674 C.3       8 UNK         0.0270 
     31 CB        -71.7742   25.1576  -74.7077 C.3       8 UNK        -0.1976 
     32 N         -72.6885   25.6026  -76.9227 N.am      8 UNK        -0.4313 
     33 C         -72.6929   25.6338  -78.2613 C.2       8 UNK         0.5041 
     34 O         -71.6834   25.7882  -78.9486 O.2       8 UNK        -0.5577 
     35 CA        -74.0686   25.5327  -78.9419 C.3       7 UNK         0.0284 
     36 CB        -74.4518   24.0654  -79.1938 C.3       7 UNK        -0.1958 
     37 N         -75.1198   26.1943  -78.1615 N.am      7 UNK        -0.4454 
     38 C         -75.2154   27.5215  -77.9932 C.2       7 UNK         0.5089 
     39 O         -74.4522   28.3344  -78.5145 O.2       7 UNK        -0.5125 
     40 CA        -76.3163   28.0220  -77.0423 C.3       6 UNK         0.0408 
     41 CB        -77.6592   28.1155  -77.7794 C.3       6 UNK        -0.1791 
     42 N         -76.4598   27.1845  -75.8474 N.am      6 UNK        -0.4762 
     43 C         -75.5120   27.0483  -74.9094 C.2       6 UNK         0.5007 
     44 O         -74.4298   27.6293  -74.9500 O.2       6 UNK        -0.5032 
     45 CA        -75.8007   26.0898  -73.7395 C.3       5 UNK         0.0783 
     46 C46       -76.5551   26.8476  -72.6300 C.3       11 UNK        -0.0857 
     47 S47       -76.9004   25.8537  -71.1372 S.3       11 UNK        -0.2512 
     48 C48       -76.7683   27.1064  -69.8091 C.3       11 UNK         0.0225 
     49 N         -76.4768   24.8518  -74.1432 N.am      5 UNK        -0.4615 
     50 C         -75.9925   23.9735  -75.0312 C.2       4 UNK         0.5053 
     51 O         -74.9949   24.1764  -75.7237 O.2       4 UNK        -0.5105 
     52 CA        -76.7254   22.6356  -75.1454 C.3       4 UNK         0.0263 
     53 CB        -76.4069   21.7556  -73.9180 C.3       4 UNK        -0.1981 
     54 N         -78.1703   22.8167  -75.3128 N.am      4 UNK        -0.4224 
     55 C         -79.0061   21.8414  -75.7016 C.2       3 UNK         0.4895 
     56 O         -78.6440   20.6917  -75.9563 O.2       3 UNK        -0.5091 
     57 CA        -80.5020   22.1808  -75.8290 C.3       3 UNK         0.0250 
     58 CB        -81.2471   21.7831  -74.5448 C.3       3 UNK        -0.1996 
     59 N         -80.7739   23.5864  -76.1396 N.am      3 UNK        -0.4254 
     60 C         -80.4752   24.1731  -77.3095 C.2       2 UNK         0.5004 
     61 O         -79.9360   23.5835  -78.2463 O.2       2 UNK        -0.5226 
     62 CA        -80.8371   25.6609  -77.4852 C.3       2 UNK         0.0269 
     63 CB        -82.0438   25.8115  -78.4263 C.3       2 UNK        -0.1926 
     64 N         -81.1173   26.3803  -76.2388 N.am      2 UNK        -0.4687 
     65 C         -80.2382   26.5932  -75.2517 C.2       1 UNK         0.5165 
     66 O         -79.0662   26.2075  -75.2813 O.2       1 UNK        -0.5079 
     67 H67       -81.4166   24.3469  -70.6805 H         1 UNK         0.0900 
     68 H68       -80.0145   23.7216  -71.5525 H         1 UNK         0.0900 
     69 H69       -79.9020   25.2491  -70.6788 H         1 UNK         0.0900 
     70 H70       -79.7877   26.9307  -72.1925 H         1 UNK         0.2959 
     71 H71       -81.8591   27.4067  -74.1080 H         1 UNK         0.1079 
     72 H72       -79.1886   28.7742  -73.5015 H         1 UNK         0.0837 
     73 H73       -80.0899   29.2027  -74.9170 H         1 UNK         0.0837 
     74 H74       -81.4146   30.3555  -70.6381 H         1 UNK         0.0685 
     75 H75       -81.3748   28.6430  -70.9649 H         1 UNK         0.0685 
     76 H76       -79.4155   27.5619  -70.2345 H         1 UNK         0.1434 
     77 H77       -75.6241   29.5284  -70.2252 H         1 UNK         0.1329 
     78 H78       -79.1239   31.6287  -71.5575 H         1 UNK         0.1335 
     79 H79       -76.6799   32.7350  -70.4630 H         1 UNK         0.0680 
     80 H80       -76.8267   32.4240  -72.1756 H         1 UNK         0.0680 
     81 H81       -75.2239   29.9092  -72.7906 H         1 UNK         0.1032 
     82 H82       -74.7381   31.3146  -73.6874 H         1 UNK         0.1032 
     83 H83       -72.3461   30.9045  -72.6697 H         1 UNK         0.0461 
     84 H84       -71.7015   27.2015  -71.8246 H         1 UNK         0.3453 
     85 H85       -71.4457   28.0274  -73.3446 H         1 UNK         0.3453 
     86 H86       -73.3150   28.9969  -74.7314 H         1 UNK         0.2984 
     87 H87       -72.5047   30.1018  -77.1692 H         1 UNK         0.0554 
     88 H88       -70.2861   31.1716  -77.3701 H         1 UNK         0.0847 
     89 H89       -70.2935   29.6546  -78.2523 H         1 UNK         0.0847 
     90 H90       -69.4986   29.7593  -76.6819 H         1 UNK         0.0847 
     91 H91       -72.6178   27.9034  -77.1628 H         1 UNK         0.3141 
     92 H92       -70.6583   25.3500  -76.5276 H         1 UNK         0.0743 
     93 H93       -70.8920   25.2160  -74.0690 H         1 UNK         0.0784 
     94 H94       -72.5961   25.6313  -74.1718 H         1 UNK         0.0784 
     95 H95       -72.0169   24.1014  -74.8265 H         1 UNK         0.0784 
     96 H96       -73.5647   25.4019  -76.4490 H         1 UNK         0.3213 
     97 H97       -73.9973   26.0363  -79.9086 H         1 UNK         0.0855 
     98 H98       -74.5349   23.4996  -78.2655 H         1 UNK         0.0814 
     99 H99       -73.7003   23.5691  -79.8092 H         1 UNK         0.0814 
    100 H100      -75.4030   23.9881  -79.7206 H         1 UNK         0.0814 
    101 H101      -75.7515   25.5983  -77.6452 H         1 UNK         0.3105 
    102 H102      -76.0412   29.0258  -76.7112 H         1 UNK         0.0547 
    103 H103      -78.4519   28.4774  -77.1248 H         1 UNK         0.0837 
    104 H104      -77.5929   28.8064  -78.6208 H         1 UNK         0.0837 
    105 H105      -77.9608   27.1478  -78.1785 H         1 UNK         0.0837 
    106 H106      -77.3476   26.7029  -75.7134 H         1 UNK         0.3020 
    107 H107      -74.8313   25.7944  -73.3331 H         1 UNK         0.1245 
    108 H108      -77.5036   27.2334  -73.0044 H         1 UNK         0.0781 
    109 H109      -75.9613   27.7129  -72.3342 H         1 UNK         0.0781 
    110 H110      -75.7121   27.2722  -69.5896 H         1 UNK         0.0836 
    111 H111      -77.2160   26.7133  -68.8954 H         1 UNK         0.0836 
    112 H112      -77.2893   24.6058  -73.5985 H         1 UNK         0.3022 
    113 H113      -76.3401   22.1376  -76.0380 H         1 UNK         0.0747 
    114 H114      -76.7711   20.7365  -74.0457 H         1 UNK         0.0793 
    115 H115      -75.3304   21.6880  -73.7539 H         1 UNK         0.0793 
    116 H116      -76.8517   22.1560  -73.0062 H         1 UNK         0.0793 
    117 H117      -78.5331   23.7545  -75.1955 H         1 UNK         0.3047 
    118 H118      -80.9017   21.5800  -76.6490 H         1 UNK         0.0822 
    119 H119      -81.1390   20.7158  -74.3471 H         1 UNK         0.0807 
    120 H120      -82.3145   21.9918  -74.6206 H         1 UNK         0.0807 
    121 H121      -80.8619   22.3137  -73.6738 H         1 UNK         0.0807 
    122 H122      -81.2200   24.1365  -75.4154 H         1 UNK         0.2946 
    123 H123      -79.9786   26.1366  -77.9592 H         1 UNK         0.1144 
    124 H124      -82.2517   26.8597  -78.6421 H         1 UNK         0.0793 
    125 H125      -82.9453   25.3693  -78.0003 H         1 UNK         0.0793 
    126 H126      -81.8597   25.3183  -79.3820 H         1 UNK         0.0793 
    127 H127      -82.0644   26.7123  -76.1231 H         1 UNK         0.2896 
@<TRIPOS>BOND
     1    1    2 1    
     2    1   67 1    
     3    1   68 1    
     4    1   69 1    
     5    2    3 2    
     6    2    4 am   BACKBONE|DICT|INTERRES
     7    4    5 1    
     8    4   70 1    
     9    5    6 1    
    10    5   65 1    
    11    5   71 1    
    12    6    7 1    
    13    6   72 1    
    14    6   73 1    
    15    7    8 1    
    16    8    9 1    
    17    8   74 1    
    18    8   75 1    
    19    9   10 ar   
    20    9   14 ar   
    21   10   11 ar   
    22   10   76 1    
    23   11   12 ar   
    24   11   48 1    
    25   12   13 ar   
    26   12   77 1    
    27   13   14 ar   
    28   13   15 1    
    29   14   78 1    
    30   15   16 1    
    31   15   79 1    
    32   15   80 1    
    33   16   17 1    
    34   17   18 1    
    35   17   81 1    
    36   17   82 1    
    37   18   19 1    
    38   18   22 1    
    39   18   83 1    
    40   19   20 am   BACKBONE|DICT|INTERRES
    41   19   21 2    
    42   20   84 1    
    43   20   85 1    
    44   22   23 am   BACKBONE|DICT|INTERRES
    45   22   86 1    
    46   23   24 2    
    47   23   25 1    
    48   25   26 1    
    49   25   27 1    
    50   25   87 1    
    51   26   88 1    
    52   26   89 1    
    53   26   90 1    
    54   27   28 am   BACKBONE|DICT|INTERRES
    55   27   91 1    
    56   28   29 2    
    57   28   30 1    
    58   30   31 1    
    59   30   32 1    
    60   30   92 1    
    61   31   93 1    
    62   31   94 1    
    63   31   95 1    
    64   32   33 am   BACKBONE|DICT|INTERRES
    65   32   96 1    
    66   33   34 2    
    67   33   35 1    
    68   35   36 1    
    69   35   37 1    
    70   35   97 1    
    71   36   98 1    
    72   36   99 1    
    73   36  100 1    
    74   37   38 am   BACKBONE|DICT|INTERRES
    75   37  101 1    
    76   38   39 2    
    77   38   40 1    
    78   40   41 1    
    79   40   42 1    
    80   40  102 1    
    81   41  103 1    
    82   41  104 1    
    83   41  105 1    
    84   42   43 am   BACKBONE|DICT|INTERRES
    85   42  106 1    
    86   43   44 2    
    87   43   45 1    
    88   45   46 1    
    89   45   49 1    
    90   45  107 1    
    91   46   47 1    
    92   46  108 1    
    93   46  109 1    
    94   47   48 1    
    95   48  110 1    
    96   48  111 1    
    97   49   50 am   BACKBONE|DICT|INTERRES
    98   49  112 1    
    99   50   51 2    
   100   50   52 1    
   101   52   53 1    
   102   52   54 1    
   103   52  113 1    
   104   53  114 1    
   105   53  115 1    
   106   53  116 1    
   107   54   55 am   BACKBONE|DICT|INTERRES
   108   54  117 1    
   109   55   56 2    
   110   55   57 1    
   111   57   58 1    
   112   57   59 1    
   113   57  118 1    
   114   58  119 1    
   115   58  120 1    
   116   58  121 1    
   117   59   60 am   BACKBONE|DICT|INTERRES
   118   59  122 1    
   119   60   61 2    
   120   60   62 1    
   121   62   63 1    
   122   62   64 1    
   123   62  123 1    
   124   63  124 1    
   125   63  125 1    
   126   63  126 1    
   127   64   65 am   BACKBONE|DICT|INTERRES
   128   64  127 1    
   129   65   66 2    
@<TRIPOS>SUBSTRUCTURE
     1 UNK         1 GROUP             0       ****    0 ROOT    
