@<TRIPOS>MOLECULE
3R135
127   129    1
SMALL
USER_CHARGES


@<TRIPOS>ATOM
      1 CA        -81.8262   29.4064  -77.6295 C.3       0 UNK        -0.1998 
      2 C         -81.1477   29.2466  -76.2772 C.2       0 UNK         0.4909 
      3 O         -80.2877   30.0556  -75.9300 O.2       0 UNK        -0.5240 
      4 N         -81.5238   28.2049  -75.5264 N.am      1 UNK        -0.4739 
      5 CA        -80.9783   27.8702  -74.2081 C.3       1 UNK         0.0864 
      6 C6        -81.9587   28.2324  -73.0608 C.3       11 UNK        -0.0881 
      7 S7        -81.9061   30.0106  -72.6623 S.3       11 UNK        -0.2682 
      8 C8        -81.2479   29.9961  -70.9638 C.3       11 UNK         0.0289 
      9 C9        -79.7897   29.5587  -70.9003 C.ar      11 UNK        -0.0687 
     10 C10       -79.4604   28.2382  -70.5780 C.ar      11 UNK        -0.0823 
     11 C11       -78.1239   27.8453  -70.4679 C.ar      11 UNK        -0.0830 
     12 C12       -77.1130   28.7903  -70.6562 C.ar      11 UNK        -0.1021 
     13 C13       -77.4242   30.1087  -71.0031 C.ar      11 UNK        -0.0753 
     14 C14       -78.7665   30.4851  -71.1257 C.ar      11 UNK        -0.0933 
     15 C15       -76.3172   31.1334  -71.2215 C.3       11 UNK         0.0166 
     16 S16       -75.3062   30.7559  -72.6915 S.3       11 UNK        -0.2615 
     17 C17       -74.0477   29.6194  -72.0064 C.3       11 UNK        -0.0865 
     18 CA        -72.6470   29.8325  -72.6351 C.3       10 UNK         0.0862 
     19 C         -71.5432   29.0392  -71.8720 C.2       10 UNK         0.5551 
     20 N         -70.6853   28.2665  -72.5289 N.am      10 UNK        -0.7319 
     21 O         -71.4543   29.1362  -70.6505 O.2       10 UNK        -0.5018 
     22 N         -72.6713   29.5701  -74.0811 N.am      10 UNK        -0.4509 
     23 C         -71.8935   30.1821  -74.9807 C.2       10 UNK         0.4899 
     24 O         -71.1144   31.0966  -74.7055 O.2       10 UNK        -0.4839 
     25 CA        -71.9976   29.6640  -76.4274 C.3       9 UNK         0.0222 
     26 CB        -70.8793   30.2029  -77.3447 C.3       9 UNK        -0.1966 
     27 N         -72.0693   28.1995  -76.5049 N.am      9 UNK        -0.4218 
     28 C         -71.1684   27.3130  -76.0484 C.2       9 UNK         0.5020 
     29 O         -70.1356   27.6395  -75.4615 O.2       9 UNK        -0.5274 
     30 CA        -71.4584   25.8081  -76.2344 C.3       8 UNK         0.0270 
     31 CB        -71.5122   25.1005  -74.8698 C.3       8 UNK        -0.1976 
     32 N         -72.6933   25.5235  -76.9703 N.am      8 UNK        -0.4313 
     33 C         -72.8589   25.6875  -78.2895 C.2       8 UNK         0.5041 
     34 O         -71.9523   26.0050  -79.0598 O.2       8 UNK        -0.5577 
     35 CA        -74.2890   25.5262  -78.8318 C.3       7 UNK         0.0284 
     36 CB        -74.5509   24.0679  -79.2400 C.3       7 UNK        -0.1958 
     37 N         -75.3191   25.9745  -77.8855 N.am      7 UNK        -0.4454 
     38 C         -75.4611   27.2370  -77.4527 C.2       7 UNK         0.5089 
     39 O         -74.7488   28.1676  -77.8280 O.2       7 UNK        -0.5125 
     40 CA        -76.5396   27.5016  -76.3876 C.3       6 UNK         0.0408 
     41 CB        -77.9408   27.4770  -77.0123 C.3       6 UNK        -0.1791 
     42 N         -76.4682   26.5568  -75.2702 N.am      6 UNK        -0.4762 
     43 C         -75.4316   26.4652  -74.4228 C.2       6 UNK         0.5007 
     44 O         -74.4755   27.2432  -74.4323 O.2       6 UNK        -0.5032 
     45 CA        -75.3968   25.2540  -73.4660 C.3       5 UNK         0.0783 
     46 C46       -75.8191   25.5819  -72.0085 C.3       11 UNK        -0.0857 
     47 S47       -77.5980   25.4016  -71.6473 S.3       11 UNK        -0.2512 
     48 C48       -77.7787   26.4015  -70.1369 C.3       11 UNK         0.0225 
     49 N         -76.0704   24.0757  -74.0240 N.am      5 UNK        -0.4615 
     50 C         -75.5881   23.3623  -75.0491 C.2       4 UNK         0.5053 
     51 O         -74.5342   23.6301  -75.6271 O.2       4 UNK        -0.5105 
     52 CA        -76.4253   22.1625  -75.5159 C.3       4 UNK         0.0263 
     53 CB        -76.4715   21.0657  -74.4392 C.3       4 UNK        -0.1981 
     54 N         -77.7890   22.5171  -75.9150 N.am      4 UNK        -0.4224 
     55 C         -78.1218   23.3351  -76.9210 C.2       3 UNK         0.4895 
     56 O         -77.3044   23.9791  -77.5748 O.2       3 UNK        -0.5091 
     57 CA        -79.6147   23.4516  -77.2790 C.3       3 UNK         0.0250 
     58 CB        -80.1407   22.1561  -77.9282 C.3       3 UNK        -0.1996 
     59 N         -80.4686   23.8902  -76.1690 N.am      3 UNK        -0.4254 
     60 C         -80.7200   23.2775  -75.0034 C.2       2 UNK         0.5004 
     61 O         -80.3005   22.1535  -74.7190 O.2       2 UNK        -0.5226 
     62 CA        -81.5783   24.0497  -73.9775 C.3       2 UNK         0.0269 
     63 CB        -81.1584   23.7293  -72.5275 C.3       2 UNK        -0.1926 
     64 N         -81.6437   25.5114  -74.1639 N.am      2 UNK        -0.4687 
     65 C         -80.6161   26.3776  -74.2095 C.2       1 UNK         0.5165 
     66 O         -79.4354   26.0414  -74.2882 O.2       1 UNK        -0.5079 
     67 H67       -82.5690   28.6296  -77.8099 H         1 UNK         0.0900 
     68 H68       -82.3269   30.3727  -77.6852 H         1 UNK         0.0900 
     69 H69       -81.0858   29.3597  -78.4277 H         1 UNK         0.0900 
     70 H70       -82.2195   27.5669  -75.8865 H         1 UNK         0.2959 
     71 H71       -80.0376   28.4017  -74.0395 H         1 UNK         0.1079 
     72 H72       -81.7418   27.6604  -72.1582 H         1 UNK         0.0837 
     73 H73       -82.9847   27.9743  -73.3286 H         1 UNK         0.0837 
     74 H74       -81.3423   30.9999  -70.5468 H         1 UNK         0.0685 
     75 H75       -81.8695   29.3532  -70.3386 H         1 UNK         0.0685 
     76 H76       -80.2431   27.5131  -70.4039 H         1 UNK         0.1434 
     77 H77       -76.0818   28.4949  -70.5393 H         1 UNK         0.1329 
     78 H78       -79.0197   31.5051  -71.3810 H         1 UNK         0.1335 
     79 H79       -75.6913   31.1998  -70.3308 H         1 UNK         0.0680 
     80 H80       -76.7471   32.1270  -71.3574 H         1 UNK         0.0680 
     81 H81       -73.9986   29.7605  -70.9255 H         1 UNK         0.1032 
     82 H82       -74.3775   28.5937  -72.1648 H         1 UNK         0.1032 
     83 H83       -72.3923   30.8835  -72.4857 H         1 UNK         0.0461 
     84 H84       -69.9785   27.7714  -72.0095 H         1 UNK         0.3453 
     85 H85       -70.7002   28.2032  -73.5396 H         1 UNK         0.3453 
     86 H86       -73.2758   28.8089  -74.3781 H         1 UNK         0.2984 
     87 H87       -72.9474   30.0360  -76.8136 H         1 UNK         0.0554 
     88 H88       -70.9945   29.8385  -78.3654 H         1 UNK         0.0847 
     89 H89       -69.8899   29.9087  -76.9929 H         1 UNK         0.0847 
     90 H90       -70.8985   31.2926  -77.3866 H         1 UNK         0.0847 
     91 H91       -72.9126   27.8433  -76.9420 H         1 UNK         0.3141 
     92 H92       -70.6249   25.3877  -76.8007 H         1 UNK         0.0743 
     93 H93       -71.7585   24.0435  -74.9736 H         1 UNK         0.0784 
     94 H94       -70.5484   25.1595  -74.3624 H         1 UNK         0.0784 
     95 H95       -72.2490   25.5589  -74.2114 H         1 UNK         0.0784 
     96 H96       -73.4787   25.1701  -76.4314 H         1 UNK         0.3213 
     97 H97       -74.3708   26.1488  -79.7253 H         1 UNK         0.0855 
     98 H98       -73.7974   23.7175  -79.9467 H         1 UNK         0.0814 
     99 H99       -75.5221   23.9607  -79.7231 H         1 UNK         0.0814 
    100 H100      -74.5302   23.3979  -78.3797 H         1 UNK         0.0814 
    101 H101      -75.9769   25.2649  -77.5662 H         1 UNK         0.3105 
    102 H102      -76.3711   28.5023  -75.9836 H         1 UNK         0.0547 
    103 H103      -78.0195   28.1989  -77.8261 H         1 UNK         0.0837 
    104 H104      -78.1969   26.4978  -77.4155 H         1 UNK         0.0837 
    105 H105      -78.6929   27.7413  -76.2731 H         1 UNK         0.0837 
    106 H106      -77.2412   25.9128  -75.1586 H         1 UNK         0.3020 
    107 H107      -74.3388   24.9918  -73.4036 H         1 UNK         0.1245 
    108 H108      -75.4861   26.5796  -71.7252 H         1 UNK         0.0781 
    109 H109      -75.2972   24.9037  -71.3316 H         1 UNK         0.0781 
    110 H110      -76.8681   26.3486  -69.5382 H         1 UNK         0.0836 
    111 H111      -78.5678   25.9649  -69.5228 H         1 UNK         0.0836 
    112 H112      -76.9563   23.8272  -73.6068 H         1 UNK         0.3022 
    113 H113      -75.9289   21.7473  -76.3956 H         1 UNK         0.0747 
    114 H114      -76.9471   20.1609  -74.8184 H         1 UNK         0.0793 
    115 H115      -75.4662   20.7906  -74.1169 H         1 UNK         0.0793 
    116 H116      -77.0235   21.3856  -73.5544 H         1 UNK         0.0793 
    117 H117      -78.5564   22.0897  -75.4013 H         1 UNK         0.3047 
    118 H118      -79.6890   24.2392  -78.0309 H         1 UNK         0.0822 
    119 H119      -80.1099   21.3080  -77.2438 H         1 UNK         0.0807 
    120 H120      -79.5419   21.8888  -78.7999 H         1 UNK         0.0807 
    121 H121      -81.1699   22.2740  -78.2669 H         1 UNK         0.0807 
    122 H122      -80.8423   24.8232  -76.2657 H         1 UNK         0.2946 
    123 H123      -82.5954   23.6783  -74.1137 H         1 UNK         0.1144 
    124 H124      -81.2486   22.6633  -72.3149 H         1 UNK         0.0793 
    125 H125      -80.1225   24.0109  -72.3401 H         1 UNK         0.0793 
    126 H126      -81.7842   24.2540  -71.8058 H         1 UNK         0.0793 
    127 H127      -82.5789   25.8945  -74.1534 H         1 UNK         0.2896 
@<TRIPOS>BOND
     1    1    2 1    
     2    1   67 1    
     3    1   68 1    
     4    1   69 1    
     5    2    3 2    
     6    2    4 am   BACKBONE|DICT|INTERRES
     7    4    5 1    
     8    4   70 1    
     9    5    6 1    
    10    5   65 1    
    11    5   71 1    
    12    6    7 1    
    13    6   72 1    
    14    6   73 1    
    15    7    8 1    
    16    8    9 1    
    17    8   74 1    
    18    8   75 1    
    19    9   10 ar   
    20    9   14 ar   
    21   10   11 ar   
    22   10   76 1    
    23   11   12 ar   
    24   11   48 1    
    25   12   13 ar   
    26   12   77 1    
    27   13   14 ar   
    28   13   15 1    
    29   14   78 1    
    30   15   16 1    
    31   15   79 1    
    32   15   80 1    
    33   16   17 1    
    34   17   18 1    
    35   17   81 1    
    36   17   82 1    
    37   18   19 1    
    38   18   22 1    
    39   18   83 1    
    40   19   20 am   BACKBONE|DICT|INTERRES
    41   19   21 2    
    42   20   84 1    
    43   20   85 1    
    44   22   23 am   BACKBONE|DICT|INTERRES
    45   22   86 1    
    46   23   24 2    
    47   23   25 1    
    48   25   26 1    
    49   25   27 1    
    50   25   87 1    
    51   26   88 1    
    52   26   89 1    
    53   26   90 1    
    54   27   28 am   BACKBONE|DICT|INTERRES
    55   27   91 1    
    56   28   29 2    
    57   28   30 1    
    58   30   31 1    
    59   30   32 1    
    60   30   92 1    
    61   31   93 1    
    62   31   94 1    
    63   31   95 1    
    64   32   33 am   BACKBONE|DICT|INTERRES
    65   32   96 1    
    66   33   34 2    
    67   33   35 1    
    68   35   36 1    
    69   35   37 1    
    70   35   97 1    
    71   36   98 1    
    72   36   99 1    
    73   36  100 1    
    74   37   38 am   BACKBONE|DICT|INTERRES
    75   37  101 1    
    76   38   39 2    
    77   38   40 1    
    78   40   41 1    
    79   40   42 1    
    80   40  102 1    
    81   41  103 1    
    82   41  104 1    
    83   41  105 1    
    84   42   43 am   BACKBONE|DICT|INTERRES
    85   42  106 1    
    86   43   44 2    
    87   43   45 1    
    88   45   46 1    
    89   45   49 1    
    90   45  107 1    
    91   46   47 1    
    92   46  108 1    
    93   46  109 1    
    94   47   48 1    
    95   48  110 1    
    96   48  111 1    
    97   49   50 am   BACKBONE|DICT|INTERRES
    98   49  112 1    
    99   50   51 2    
   100   50   52 1    
   101   52   53 1    
   102   52   54 1    
   103   52  113 1    
   104   53  114 1    
   105   53  115 1    
   106   53  116 1    
   107   54   55 am   BACKBONE|DICT|INTERRES
   108   54  117 1    
   109   55   56 2    
   110   55   57 1    
   111   57   58 1    
   112   57   59 1    
   113   57  118 1    
   114   58  119 1    
   115   58  120 1    
   116   58  121 1    
   117   59   60 am   BACKBONE|DICT|INTERRES
   118   59  122 1    
   119   60   61 2    
   120   60   62 1    
   121   62   63 1    
   122   62   64 1    
   123   62  123 1    
   124   63  124 1    
   125   63  125 1    
   126   63  126 1    
   127   64   65 am   BACKBONE|DICT|INTERRES
   128   64  127 1    
   129   65   66 2    
@<TRIPOS>SUBSTRUCTURE
     1 UNK         1 GROUP             0       ****    0 ROOT    
