@<TRIPOS>MOLECULE
3R135
127   129    1
SMALL
USER_CHARGES


@<TRIPOS>ATOM
      1 CA        -82.0460   22.2649  -71.2792 C.3       0 UNK        -0.1998 
      2 C         -82.4045   23.5911  -71.9319 C.2       0 UNK         0.4909 
      3 O         -83.5455   23.7779  -72.3577 O.2       0 UNK        -0.5240 
      4 N         -81.4390   24.5147  -72.0164 N.am      1 UNK        -0.4739 
      5 CA        -81.5756   25.8470  -72.6177 C.3       1 UNK         0.0864 
      6 C6        -80.4813   26.8214  -72.1192 C.3       11 UNK        -0.0881 
      7 S7        -80.4690   27.0739  -70.3107 S.3       11 UNK        -0.2682 
      8 C8        -78.6763   27.0021  -69.9303 C.3       11 UNK         0.0289 
      9 C9        -77.7956   28.0960  -70.5499 C.ar      11 UNK        -0.0687 
     10 C10       -78.3057   29.1129  -71.3666 C.ar      11 UNK        -0.0823 
     11 C11       -77.4584   30.0366  -71.9747 C.ar      11 UNK        -0.0830 
     12 C12       -76.0953   30.0099  -71.6880 C.ar      11 UNK        -0.1021 
     13 C13       -75.5558   29.0205  -70.8583 C.ar      11 UNK        -0.0753 
     14 C14       -76.4161   28.0613  -70.3081 C.ar      11 UNK        -0.0933 
     15 C15       -74.0553   28.9287  -70.5688 C.3       11 UNK         0.0166 
     16 S16       -73.1421   30.5084  -70.7172 S.3       11 UNK        -0.2615 
     17 C17       -72.1265   30.2478  -72.2161 C.3       11 UNK        -0.0865 
     18 CA        -72.8407   30.6137  -73.5528 C.3       10 UNK         0.0862 
     19 C         -72.8775   32.1403  -73.8736 C.2       10 UNK         0.5551 
     20 N         -72.8996   32.5393  -75.1399 N.am      10 UNK        -0.7319 
     21 O         -72.9098   32.9773  -72.9754 O.2       10 UNK        -0.5018 
     22 N         -72.3918   29.7598  -74.6598 N.am      10 UNK        -0.4509 
     23 C         -71.1488   29.7006  -75.1565 C.2       10 UNK         0.4899 
     24 O         -70.2261   30.4351  -74.7993 O.2       10 UNK        -0.4839 
     25 CA        -70.9032   28.5933  -76.1989 C.3       9 UNK         0.0222 
     26 CB        -69.4179   28.4371  -76.5875 C.3       9 UNK        -0.1966 
     27 N         -71.4731   27.3113  -75.7652 N.am      9 UNK        -0.4218 
     28 C         -71.1875   26.6313  -74.6410 C.2       9 UNK         0.5020 
     29 O         -70.2919   26.9470  -73.8560 O.2       9 UNK        -0.5274 
     30 CA        -72.0666   25.4144  -74.2941 C.3       8 UNK         0.0270 
     31 CB        -72.9057   25.7155  -73.0397 C.3       8 UNK        -0.1976 
     32 N         -72.9629   25.0074  -75.3795 N.am      8 UNK        -0.4313 
     33 C         -72.5748   24.3454  -76.4779 C.2       8 UNK         0.5041 
     34 O         -71.4276   23.9358  -76.6595 O.2       8 UNK        -0.5577 
     35 CA        -73.6296   24.1393  -77.5784 C.3       7 UNK         0.0284 
     36 CB        -74.4455   22.8652  -77.3136 C.3       7 UNK        -0.1958 
     37 N         -74.5332   25.2832  -77.7489 N.am      7 UNK        -0.4454 
     38 C         -74.1494   26.5105  -78.1299 C.2       7 UNK         0.5089 
     39 O         -72.9791   26.8274  -78.3395 O.2       7 UNK        -0.5125 
     40 CA        -75.2480   27.5744  -78.2748 C.3       6 UNK         0.0408 
     41 CB        -76.0177   27.3944  -79.5929 C.3       6 UNK        -0.1791 
     42 N         -76.1805   27.5625  -77.1486 N.am      6 UNK        -0.4762 
     43 C         -75.8839   27.9989  -75.9155 C.2       6 UNK         0.5007 
     44 O         -74.7879   28.4696  -75.6021 O.2       6 UNK        -0.5032 
     45 CA        -76.9868   27.8256  -74.8443 C.3       5 UNK         0.0783 
     46 C46       -78.0777   28.9285  -74.9390 C.3       11 UNK        -0.0857 
     47 S47       -77.4513   30.6310  -74.6770 S.3       11 UNK        -0.2512 
     48 C48       -78.0078   31.0306  -72.9850 C.3       11 UNK         0.0225 
     49 N         -77.5796   26.4787  -74.8909 N.am      5 UNK        -0.4615 
     50 C         -76.8854   25.3377  -74.7472 C.2       4 UNK         0.5053 
     51 O         -75.6793   25.2952  -74.5132 O.2       4 UNK        -0.5105 
     52 CA        -77.6382   24.0122  -74.9439 C.3       4 UNK         0.0263 
     53 CB        -78.3031   23.5695  -73.6337 C.3       4 UNK        -0.1981 
     54 N         -78.6316   24.0386  -76.0191 N.am      4 UNK        -0.4224 
     55 C         -78.4042   24.3349  -77.3057 C.2       3 UNK         0.4895 
     56 O         -77.2998   24.6587  -77.7411 O.2       3 UNK        -0.5091 
     57 CA        -79.6000   24.2943  -78.2789 C.3       3 UNK         0.0250 
     58 CB        -79.6995   22.9217  -78.9722 C.3       3 UNK        -0.1996 
     59 N         -80.8860   24.7071  -77.6920 N.am      3 UNK        -0.4254 
     60 C         -81.6010   24.0997  -76.7344 C.2       2 UNK         0.5004 
     61 O         -81.3095   23.0112  -76.2340 O.2       2 UNK        -0.5226 
     62 CA        -82.7895   24.8895  -76.1647 C.3       2 UNK         0.0269 
     63 CB        -84.1113   24.1401  -76.3980 C.3       2 UNK        -0.1926 
     64 N         -82.6158   25.1313  -74.7294 N.am      2 UNK        -0.4687 
     65 C         -81.5873   25.7784  -74.1630 C.2       1 UNK         0.5165 
     66 O         -80.6646   26.2875  -74.8080 O.2       1 UNK        -0.5079 
     67 H67       -82.1969   21.4481  -71.9845 H         1 UNK         0.0900 
     68 H68       -82.6824   22.0895  -70.4123 H         1 UNK         0.0900 
     69 H69       -81.0077   22.2401  -70.9488 H         1 UNK         0.0900 
     70 H70       -80.5298   24.3082  -71.6300 H         1 UNK         0.2959 
     71 H71       -82.5415   26.2588  -72.3157 H         1 UNK         0.1079 
     72 H72       -79.4920   26.4899  -72.4401 H         1 UNK         0.0837 
     73 H73       -80.6424   27.7940  -72.5863 H         1 UNK         0.0837 
     74 H74       -78.2981   26.0268  -70.2404 H         1 UNK         0.0685 
     75 H75       -78.5638   27.0439  -68.8461 H         1 UNK         0.0685 
     76 H76       -79.3618   29.1909  -71.5625 H         1 UNK         0.1434 
     77 H77       -75.4672   30.7615  -72.1377 H         1 UNK         0.1329 
     78 H78       -76.0078   27.2784  -69.6831 H         1 UNK         0.1335 
     79 H79       -73.6204   28.1774  -71.2280 H         1 UNK         0.0680 
     80 H80       -73.9086   28.5623  -69.5516 H         1 UNK         0.0680 
     81 H81       -71.2025   30.8198  -72.1145 H         1 UNK         0.1032 
     82 H82       -71.8094   29.2036  -72.2271 H         1 UNK         0.1032 
     83 H83       -73.8839   30.3261  -73.4593 H         1 UNK         0.0461 
     84 H84       -72.9305   33.5245  -75.3490 H         1 UNK         0.3453 
     85 H85       -72.8846   31.8621  -75.8853 H         1 UNK         0.3453 
     86 H86       -73.1117   29.1549  -75.0496 H         1 UNK         0.2984 
     87 H87       -71.4513   28.8862  -77.0954 H         1 UNK         0.0554 
     88 H88       -69.0269   29.3628  -77.0115 H         1 UNK         0.0847 
     89 H89       -69.2851   27.6563  -77.3363 H         1 UNK         0.0847 
     90 H90       -68.7960   28.1868  -75.7275 H         1 UNK         0.0847 
     91 H91       -72.2069   26.9500  -76.3637 H         1 UNK         0.3141 
     92 H92       -71.3975   24.5821  -74.0663 H         1 UNK         0.0743 
     93 H93       -72.2698   25.9761  -72.1926 H         1 UNK         0.0784 
     94 H94       -73.5878   26.5509  -73.2055 H         1 UNK         0.0784 
     95 H95       -73.5009   24.8517  -72.7429 H         1 UNK         0.0784 
     96 H96       -73.9465   25.2486  -75.2675 H         1 UNK         0.3213 
     97 H97       -73.0957   24.0079  -78.5221 H         1 UNK         0.0855 
     98 H98       -74.9694   22.9171  -76.3604 H         1 UNK         0.0814 
     99 H99       -73.7971   21.9887  -77.2797 H         1 UNK         0.0814 
    100 H100      -75.1845   22.6930  -78.0964 H         1 UNK         0.0814 
    101 H101      -75.5295   25.1036  -77.6309 H         1 UNK         0.3105 
    102 H102      -74.7630   28.5527  -78.3027 H         1 UNK         0.0547 
    103 H103      -76.5432   26.4398  -79.6334 H         1 UNK         0.0837 
    104 H104      -76.7519   28.1875  -79.7347 H         1 UNK         0.0837 
    105 H105      -75.3389   27.4272  -80.4462 H         1 UNK         0.0837 
    106 H106      -77.0745   27.1179  -77.3018 H         1 UNK         0.3020 
    107 H107      -76.4973   27.9184  -73.8718 H         1 UNK         0.1245 
    108 H108      -78.8682   28.7310  -74.2142 H         1 UNK         0.0781 
    109 H109      -78.5657   28.8950  -75.9147 H         1 UNK         0.0781 
    110 H110      -77.6711   32.0355  -72.7261 H         1 UNK         0.0836 
    111 H111      -79.0985   31.0561  -72.9619 H         1 UNK         0.0836 
    112 H112      -78.5783   26.4202  -75.0611 H         1 UNK         0.3022 
    113 H113      -76.9027   23.2538  -75.2125 H         1 UNK         0.0747 
    114 H114      -77.5685   23.4854  -72.8315 H         1 UNK         0.0793 
    115 H115      -78.7846   22.5969  -73.7381 H         1 UNK         0.0793 
    116 H116      -79.0557   24.2855  -73.3133 H         1 UNK         0.0793 
    117 H117      -79.5741   23.7441  -75.7826 H         1 UNK         0.3047 
    118 H118      -79.3839   25.0326  -79.0530 H         1 UNK         0.0822 
    119 H119      -78.7740   22.6872  -79.4999 H         1 UNK         0.0807 
    120 H120      -80.5043   22.9057  -79.7070 H         1 UNK         0.0807 
    121 H121      -79.8771   22.1141  -78.2616 H         1 UNK         0.0807 
    122 H122      -81.2021   25.6197  -77.9912 H         1 UNK         0.2946 
    123 H123      -82.8493   25.8602  -76.6617 H         1 UNK         0.1144 
    124 H124      -84.2719   23.9527  -77.4605 H         1 UNK         0.0793 
    125 H125      -84.9637   24.7167  -76.0382 H         1 UNK         0.0793 
    126 H126      -84.1219   23.1744  -75.8905 H         1 UNK         0.0793 
    127 H127      -83.2701   24.6722  -74.1027 H         1 UNK         0.2896 
@<TRIPOS>BOND
     1    1    2 1    
     2    1   67 1    
     3    1   68 1    
     4    1   69 1    
     5    2    3 2    
     6    2    4 am   BACKBONE|DICT|INTERRES
     7    4    5 1    
     8    4   70 1    
     9    5    6 1    
    10    5   65 1    
    11    5   71 1    
    12    6    7 1    
    13    6   72 1    
    14    6   73 1    
    15    7    8 1    
    16    8    9 1    
    17    8   74 1    
    18    8   75 1    
    19    9   10 ar   
    20    9   14 ar   
    21   10   11 ar   
    22   10   76 1    
    23   11   12 ar   
    24   11   48 1    
    25   12   13 ar   
    26   12   77 1    
    27   13   14 ar   
    28   13   15 1    
    29   14   78 1    
    30   15   16 1    
    31   15   79 1    
    32   15   80 1    
    33   16   17 1    
    34   17   18 1    
    35   17   81 1    
    36   17   82 1    
    37   18   19 1    
    38   18   22 1    
    39   18   83 1    
    40   19   20 am   BACKBONE|DICT|INTERRES
    41   19   21 2    
    42   20   84 1    
    43   20   85 1    
    44   22   23 am   BACKBONE|DICT|INTERRES
    45   22   86 1    
    46   23   24 2    
    47   23   25 1    
    48   25   26 1    
    49   25   27 1    
    50   25   87 1    
    51   26   88 1    
    52   26   89 1    
    53   26   90 1    
    54   27   28 am   BACKBONE|DICT|INTERRES
    55   27   91 1    
    56   28   29 2    
    57   28   30 1    
    58   30   31 1    
    59   30   32 1    
    60   30   92 1    
    61   31   93 1    
    62   31   94 1    
    63   31   95 1    
    64   32   33 am   BACKBONE|DICT|INTERRES
    65   32   96 1    
    66   33   34 2    
    67   33   35 1    
    68   35   36 1    
    69   35   37 1    
    70   35   97 1    
    71   36   98 1    
    72   36   99 1    
    73   36  100 1    
    74   37   38 am   BACKBONE|DICT|INTERRES
    75   37  101 1    
    76   38   39 2    
    77   38   40 1    
    78   40   41 1    
    79   40   42 1    
    80   40  102 1    
    81   41  103 1    
    82   41  104 1    
    83   41  105 1    
    84   42   43 am   BACKBONE|DICT|INTERRES
    85   42  106 1    
    86   43   44 2    
    87   43   45 1    
    88   45   46 1    
    89   45   49 1    
    90   45  107 1    
    91   46   47 1    
    92   46  108 1    
    93   46  109 1    
    94   47   48 1    
    95   48  110 1    
    96   48  111 1    
    97   49   50 am   BACKBONE|DICT|INTERRES
    98   49  112 1    
    99   50   51 2    
   100   50   52 1    
   101   52   53 1    
   102   52   54 1    
   103   52  113 1    
   104   53  114 1    
   105   53  115 1    
   106   53  116 1    
   107   54   55 am   BACKBONE|DICT|INTERRES
   108   54  117 1    
   109   55   56 2    
   110   55   57 1    
   111   57   58 1    
   112   57   59 1    
   113   57  118 1    
   114   58  119 1    
   115   58  120 1    
   116   58  121 1    
   117   59   60 am   BACKBONE|DICT|INTERRES
   118   59  122 1    
   119   60   61 2    
   120   60   62 1    
   121   62   63 1    
   122   62   64 1    
   123   62  123 1    
   124   63  124 1    
   125   63  125 1    
   126   63  126 1    
   127   64   65 am   BACKBONE|DICT|INTERRES
   128   64  127 1    
   129   65   66 2    
@<TRIPOS>SUBSTRUCTURE
     1 UNK         1 GROUP             0       ****    0 ROOT    
