@<TRIPOS>MOLECULE
3R135
127   129    1
SMALL
USER_CHARGES


@<TRIPOS>ATOM
      1 CA        -84.6324   29.8098  -70.0652 C.3       0 UNK        -0.1998 
      2 C         -84.3300   29.5279  -71.5291 C.2       0 UNK         0.4909 
      3 O         -85.1412   29.8529  -72.3964 O.2       0 UNK        -0.5240 
      4 N         -83.1699   28.9210  -71.8114 N.am      1 UNK        -0.4739 
      5 CA        -82.7148   28.5581  -73.1610 C.3       1 UNK         0.0864 
      6 C6        -81.1683   28.4959  -73.2435 C.3       11 UNK        -0.0881 
      7 S7        -80.4006   27.3150  -72.0776 S.3       11 UNK        -0.2682 
      8 C8        -79.3855   26.3012  -73.1972 C.3       11 UNK         0.0289 
      9 C9        -78.1705   27.0555  -73.7169 C.ar      11 UNK        -0.0687 
     10 C10       -78.1509   27.5532  -75.0241 C.ar      11 UNK        -0.0823 
     11 C11       -77.0052   28.1810  -75.5243 C.ar      11 UNK        -0.0830 
     12 C12       -75.8912   28.3420  -74.6964 C.ar      11 UNK        -0.1021 
     13 C13       -75.9055   27.8628  -73.3846 C.ar      11 UNK        -0.0753 
     14 C14       -77.0461   27.2162  -72.9005 C.ar      11 UNK        -0.0933 
     15 C15       -74.6810   28.0414  -72.5034 C.3       11 UNK         0.0166 
     16 S16       -74.6885   29.6830  -71.7240 S.3       11 UNK        -0.2615 
     17 C17       -72.9370   29.8675  -71.2460 C.3       11 UNK        -0.0865 
     18 CA        -72.1562   30.7637  -72.2462 C.3       10 UNK         0.0862 
     19 C         -70.7737   31.2032  -71.6773 C.2       10 UNK         0.5551 
     20 N         -69.6697   31.0748  -72.4040 N.am      10 UNK        -0.7319 
     21 O         -70.7007   31.6870  -70.5502 O.2       10 UNK        -0.5018 
     22 N         -72.0789   30.1393  -73.5775 N.am      10 UNK        -0.4509 
     23 C         -72.1374   30.7925  -74.7440 C.2       10 UNK         0.4899 
     24 O         -72.3401   32.0038  -74.8427 O.2       10 UNK        -0.4839 
     25 CA        -71.9187   29.9383  -76.0122 C.3       9 UNK         0.0222 
     26 CB        -71.5636   30.7889  -77.2495 C.3       9 UNK        -0.1966 
     27 N         -70.9372   28.8562  -75.8387 N.am      9 UNK        -0.4218 
     28 C         -69.6595   28.9792  -75.4359 C.2       9 UNK         0.5020 
     29 O         -69.1462   30.0519  -75.1156 O.2       9 UNK        -0.5274 
     30 CA        -68.8076   27.6996  -75.3223 C.3       8 UNK         0.0270 
     31 CB        -68.6643   27.2902  -73.8464 C.3       8 UNK        -0.1976 
     32 N         -69.3367   26.5648  -76.0800 N.am      8 UNK        -0.4313 
     33 C         -69.3660   26.4729  -77.4165 C.2       8 UNK         0.5041 
     34 O         -68.8460   27.2962  -78.1704 O.2       8 UNK        -0.5577 
     35 CA        -70.1254   25.2734  -78.0177 C.3       7 UNK         0.0284 
     36 CB        -69.1367   24.1871  -78.4725 C.3       7 UNK        -0.1958 
     37 N         -71.1296   24.6702  -77.1283 N.am      7 UNK        -0.4454 
     38 C         -72.1951   25.3035  -76.6191 C.2       7 UNK         0.5089 
     39 O         -72.4211   26.5056  -76.7756 O.2       7 UNK        -0.5125 
     40 CA        -73.1187   24.4728  -75.7182 C.3       6 UNK         0.0408 
     41 CB        -72.7551   24.6899  -74.2403 C.3       6 UNK        -0.1791 
     42 N         -74.5116   24.8596  -75.9262 N.am      6 UNK        -0.4762 
     43 C         -75.2761   24.4357  -76.9403 C.2       6 UNK         0.5007 
     44 O         -74.9162   23.6036  -77.7771 O.2       6 UNK        -0.5032 
     45 CA        -76.6862   25.0462  -77.0304 C.3       5 UNK         0.0783 
     46 C46       -76.8359   26.0790  -78.1764 C.3       11 UNK        -0.0857 
     47 S47       -75.8386   27.5937  -77.9605 S.3       11 UNK        -0.2512 
     48 C48       -76.9445   28.6516  -76.9693 C.3       11 UNK         0.0225 
     49 N         -77.6949   23.9936  -77.1408 N.am      5 UNK        -0.4615 
     50 C         -78.1231   23.2528  -76.1135 C.2       4 UNK         0.5053 
     51 O         -77.6978   23.3596  -74.9609 O.2       4 UNK        -0.5105 
     52 CA        -79.2096   22.2104  -76.4293 C.3       4 UNK         0.0263 
     53 CB        -78.5862   20.8151  -76.5956 C.3       4 UNK        -0.1981 
     54 N         -80.2310   22.1644  -75.3797 N.am      4 UNK        -0.4224 
     55 C         -81.0698   23.1695  -75.0951 C.2       3 UNK         0.4895 
     56 O         -81.1312   24.2171  -75.7450 O.2       3 UNK        -0.5091 
     57 CA        -81.9916   22.9692  -73.8842 C.3       3 UNK         0.0250 
     58 CB        -81.1962   22.8844  -72.5649 C.3       3 UNK        -0.1996 
     59 N         -82.9450   24.0748  -73.8277 N.am      3 UNK        -0.4254 
     60 C         -84.0916   24.0935  -73.1421 C.2       2 UNK         0.5004 
     61 O         -84.4793   23.1564  -72.4411 O.2       2 UNK        -0.5226 
     62 CA        -84.9356   25.3780  -73.2496 C.3       2 UNK         0.0269 
     63 CB        -86.2036   25.3313  -72.3753 C.3       2 UNK        -0.1926 
     64 N         -84.1630   26.5691  -72.8866 N.am      2 UNK        -0.4687 
     65 C         -83.3905   27.2824  -73.7182 C.2       1 UNK         0.5165 
     66 O         -83.2065   26.9666  -74.8944 O.2       1 UNK        -0.5079 
     67 H67       -84.7661   30.8800  -69.9094 H         1 UNK         0.0900 
     68 H68       -85.5509   29.3045  -69.7676 H         1 UNK         0.0900 
     69 H69       -83.8304   29.4697  -69.4103 H         1 UNK         0.0900 
     70 H70       -82.5361   28.6713  -71.0641 H         1 UNK         0.2959 
     71 H71       -83.0277   29.3588  -73.8355 H         1 UNK         0.1079 
     72 H72       -80.7546   29.4825  -73.0295 H         1 UNK         0.0837 
     73 H73       -80.8579   28.2722  -74.2651 H         1 UNK         0.0837 
     74 H74       -79.0437   25.4156  -72.6605 H         1 UNK         0.0685 
     75 H75       -80.0017   25.9398  -74.0209 H         1 UNK         0.0685 
     76 H76       -79.0113   27.4139  -75.6646 H         1 UNK         0.1434 
     77 H77       -75.0056   28.8303  -75.0793 H         1 UNK         0.1329 
     78 H78       -77.0604   26.8352  -71.8884 H         1 UNK         0.1335 
     79 H79       -73.7810   27.9198  -73.1067 H         1 UNK         0.0680 
     80 H80       -74.6436   27.2718  -71.7309 H         1 UNK         0.0680 
     81 H81       -72.4641   28.8893  -71.1432 H         1 UNK         0.1032 
     82 H82       -72.9291   30.3086  -70.2473 H         1 UNK         0.1032 
     83 H83       -72.7203   31.6938  -72.3393 H         1 UNK         0.0461 
     84 H84       -68.7919   31.3743  -72.0109 H         1 UNK         0.3453 
     85 H85       -69.6951   30.7208  -73.3545 H         1 UNK         0.3453 
     86 H86       -71.8738   29.1526  -73.5936 H         1 UNK         0.2984 
     87 H87       -72.8721   29.4484  -76.2150 H         1 UNK         0.0554 
     88 H88       -72.3501   31.5120  -77.4687 H         1 UNK         0.0847 
     89 H89       -71.4426   30.1662  -78.1359 H         1 UNK         0.0847 
     90 H90       -70.6383   31.3472  -77.1028 H         1 UNK         0.0847 
     91 H91       -71.2789   27.9325  -76.0933 H         1 UNK         0.3141 
     92 H92       -67.8150   27.9348  -75.7125 H         1 UNK         0.0743 
     93 H93       -69.6255   27.0275  -73.4027 H         1 UNK         0.0784 
     94 H94       -67.9967   26.4356  -73.7344 H         1 UNK         0.0784 
     95 H95       -68.2445   28.1045  -73.2536 H         1 UNK         0.0784 
     96 H96       -69.7687   25.8237  -75.5487 H         1 UNK         0.3213 
     97 H97       -70.6546   25.6442  -78.8982 H         1 UNK         0.0855 
     98 H98       -68.5964   23.7538  -77.6299 H         1 UNK         0.0814 
     99 H99       -68.3941   24.5974  -79.1586 H         1 UNK         0.0814 
    100 H100      -69.6463   23.3794  -78.9983 H         1 UNK         0.0814 
    101 H101      -71.0161   23.6861  -76.9285 H         1 UNK         0.3105 
    102 H102      -73.0020   23.4129  -75.9549 H         1 UNK         0.0547 
    103 H103      -73.4090   24.1166  -73.5828 H         1 UNK         0.0837 
    104 H104      -72.8300   25.7395  -73.9538 H         1 UNK         0.0837 
    105 H105      -71.7329   24.3686  -74.0365 H         1 UNK         0.0837 
    106 H106      -74.8673   25.5852  -75.3201 H         1 UNK         0.3020 
    107 H107      -76.8729   25.5544  -76.0868 H         1 UNK         0.1245 
    108 H108      -77.8814   26.3752  -78.2759 H         1 UNK         0.0781 
    109 H109      -76.5649   25.6271  -79.1325 H         1 UNK         0.0781 
    110 H110      -77.9375   28.6788  -77.4206 H         1 UNK         0.0836 
    111 H111      -76.5693   29.6757  -76.9959 H         1 UNK         0.0836 
    112 H112      -78.0560   23.8130  -78.0662 H         1 UNK         0.3022 
    113 H113      -79.7030   22.4840  -77.3646 H         1 UNK         0.0747 
    114 H114      -79.3382   20.0721  -76.8619 H         1 UNK         0.0793 
    115 H115      -77.8367   20.8147  -77.3885 H         1 UNK         0.0793 
    116 H116      -78.0922   20.4824  -75.6816 H         1 UNK         0.0793 
    117 H117      -80.2261   21.3501  -74.7829 H         1 UNK         0.3047 
    118 H118      -82.5413   22.0382  -74.0386 H         1 UNK         0.0822 
    119 H119      -81.8456   22.6331  -71.7262 H         1 UNK         0.0807 
    120 H120      -80.7086   23.8291  -72.3296 H         1 UNK         0.0807 
    121 H121      -80.4226   22.1171  -72.6066 H         1 UNK         0.0807 
    122 H122      -82.7075   24.8661  -74.4199 H         1 UNK         0.2946 
    123 H123      -85.2559   25.4601  -74.2911 H         1 UNK         0.1144 
    124 H124      -85.9615   25.2340  -71.3163 H         1 UNK         0.0793 
    125 H125      -86.8350   24.4837  -72.6458 H         1 UNK         0.0793 
    126 H126      -86.8046   26.2322  -72.5006 H         1 UNK         0.0793 
    127 H127      -84.2278   26.8768  -71.9272 H         1 UNK         0.2896 
@<TRIPOS>BOND
     1    1    2 1    
     2    1   67 1    
     3    1   68 1    
     4    1   69 1    
     5    2    3 2    
     6    2    4 am   BACKBONE|DICT|INTERRES
     7    4    5 1    
     8    4   70 1    
     9    5    6 1    
    10    5   65 1    
    11    5   71 1    
    12    6    7 1    
    13    6   72 1    
    14    6   73 1    
    15    7    8 1    
    16    8    9 1    
    17    8   74 1    
    18    8   75 1    
    19    9   10 ar   
    20    9   14 ar   
    21   10   11 ar   
    22   10   76 1    
    23   11   12 ar   
    24   11   48 1    
    25   12   13 ar   
    26   12   77 1    
    27   13   14 ar   
    28   13   15 1    
    29   14   78 1    
    30   15   16 1    
    31   15   79 1    
    32   15   80 1    
    33   16   17 1    
    34   17   18 1    
    35   17   81 1    
    36   17   82 1    
    37   18   19 1    
    38   18   22 1    
    39   18   83 1    
    40   19   20 am   BACKBONE|DICT|INTERRES
    41   19   21 2    
    42   20   84 1    
    43   20   85 1    
    44   22   23 am   BACKBONE|DICT|INTERRES
    45   22   86 1    
    46   23   24 2    
    47   23   25 1    
    48   25   26 1    
    49   25   27 1    
    50   25   87 1    
    51   26   88 1    
    52   26   89 1    
    53   26   90 1    
    54   27   28 am   BACKBONE|DICT|INTERRES
    55   27   91 1    
    56   28   29 2    
    57   28   30 1    
    58   30   31 1    
    59   30   32 1    
    60   30   92 1    
    61   31   93 1    
    62   31   94 1    
    63   31   95 1    
    64   32   33 am   BACKBONE|DICT|INTERRES
    65   32   96 1    
    66   33   34 2    
    67   33   35 1    
    68   35   36 1    
    69   35   37 1    
    70   35   97 1    
    71   36   98 1    
    72   36   99 1    
    73   36  100 1    
    74   37   38 am   BACKBONE|DICT|INTERRES
    75   37  101 1    
    76   38   39 2    
    77   38   40 1    
    78   40   41 1    
    79   40   42 1    
    80   40  102 1    
    81   41  103 1    
    82   41  104 1    
    83   41  105 1    
    84   42   43 am   BACKBONE|DICT|INTERRES
    85   42  106 1    
    86   43   44 2    
    87   43   45 1    
    88   45   46 1    
    89   45   49 1    
    90   45  107 1    
    91   46   47 1    
    92   46  108 1    
    93   46  109 1    
    94   47   48 1    
    95   48  110 1    
    96   48  111 1    
    97   49   50 am   BACKBONE|DICT|INTERRES
    98   49  112 1    
    99   50   51 2    
   100   50   52 1    
   101   52   53 1    
   102   52   54 1    
   103   52  113 1    
   104   53  114 1    
   105   53  115 1    
   106   53  116 1    
   107   54   55 am   BACKBONE|DICT|INTERRES
   108   54  117 1    
   109   55   56 2    
   110   55   57 1    
   111   57   58 1    
   112   57   59 1    
   113   57  118 1    
   114   58  119 1    
   115   58  120 1    
   116   58  121 1    
   117   59   60 am   BACKBONE|DICT|INTERRES
   118   59  122 1    
   119   60   61 2    
   120   60   62 1    
   121   62   63 1    
   122   62   64 1    
   123   62  123 1    
   124   63  124 1    
   125   63  125 1    
   126   63  126 1    
   127   64   65 am   BACKBONE|DICT|INTERRES
   128   64  127 1    
   129   65   66 2    
@<TRIPOS>SUBSTRUCTURE
     1 UNK         1 GROUP             0       ****    0 ROOT    
