@<TRIPOS>MOLECULE
3R135
127   129    1
SMALL
USER_CHARGES


@<TRIPOS>ATOM
      1 CA        -83.1344   24.2424  -71.1139 C.3       0 UNK        -0.1998 
      2 C         -82.9338   25.4774  -71.9785 C.2       0 UNK         0.4909 
      3 O         -82.3650   25.3687  -73.0625 O.2       0 UNK        -0.5240 
      4 N         -83.4234   26.6365  -71.5112 N.am      1 UNK        -0.4739 
      5 CA        -83.2991   27.9919  -72.0838 C.3       1 UNK         0.0864 
      6 C6        -81.9833   28.7138  -71.6764 C.3       11 UNK        -0.0881 
      7 S7        -80.4461   28.0611  -72.4183 S.3       11 UNK        -0.2682 
      8 C8        -79.6583   27.2733  -70.9793 C.3       11 UNK         0.0289 
      9 C9        -78.1940   26.9485  -71.2397 C.ar      11 UNK        -0.0687 
     10 C10       -77.7382   25.6260  -71.2250 C.ar      11 UNK        -0.0823 
     11 C11       -76.3773   25.3430  -71.3878 C.ar      11 UNK        -0.0830 
     12 C12       -75.4774   26.3927  -71.6026 C.ar      11 UNK        -0.1021 
     13 C13       -75.9214   27.7186  -71.6313 C.ar      11 UNK        -0.0753 
     14 C14       -77.2796   27.9868  -71.4373 C.ar      11 UNK        -0.0933 
     15 C15       -74.9195   28.8569  -71.7901 C.3       11 UNK         0.0166 
     16 S16       -75.4294   30.1006  -73.0212 S.3       11 UNK        -0.2615 
     17 C17       -74.0004   31.2370  -72.9656 C.3       11 UNK        -0.0865 
     18 CA        -73.3993   31.5468  -74.3626 C.3       10 UNK         0.0862 
     19 C         -72.1750   32.5000  -74.2178 C.2       10 UNK         0.5551 
     20 N         -70.9468   32.0492  -74.4513 N.am      10 UNK        -0.7319 
     21 O         -72.3476   33.6695  -73.8838 O.2       10 UNK        -0.5018 
     22 N         -73.1287   30.3219  -75.1297 N.am      10 UNK        -0.4509 
     23 C         -72.8271   30.2743  -76.4335 C.2       10 UNK         0.4899 
     24 O         -72.8659   31.2552  -77.1780 O.2       10 UNK        -0.4839 
     25 CA        -72.4048   28.9016  -76.9983 C.3       9 UNK         0.0222 
     26 CB        -71.3946   29.0325  -78.1569 C.3       9 UNK        -0.1966 
     27 N         -71.9024   27.9638  -75.9836 N.am      9 UNK        -0.4218 
     28 C         -70.8575   28.1275  -75.1544 C.2       9 UNK         0.5020 
     29 O         -70.1627   29.1439  -75.1101 O.2       9 UNK        -0.5274 
     30 CA        -70.5606   26.9700  -74.1901 C.3       8 UNK         0.0270 
     31 CB        -71.5171   27.0139  -72.9866 C.3       8 UNK        -0.1976 
     32 N         -70.6918   25.6796  -74.8669 N.am      8 UNK        -0.4313 
     33 C         -69.6764   24.9958  -75.4122 C.2       8 UNK         0.5041 
     34 O         -68.4944   25.3308  -75.3234 O.2       8 UNK        -0.5577 
     35 CA        -70.0366   23.7201  -76.1981 C.3       7 UNK         0.0284 
     36 CB        -69.9848   22.4890  -75.2787 C.3       7 UNK        -0.1958 
     37 N         -71.3539   23.7941  -76.8358 N.am      7 UNK        -0.4454 
     38 C         -71.6654   24.6174  -77.8470 C.2       7 UNK         0.5089 
     39 O         -70.8433   25.3224  -78.4311 O.2       7 UNK        -0.5125 
     40 CA        -73.1465   24.6905  -78.2642 C.3       6 UNK         0.0408 
     41 CB        -73.3813   23.8752  -79.5457 C.3       6 UNK        -0.1791 
     42 N         -74.1018   24.2570  -77.2348 N.am      6 UNK        -0.4762 
     43 C         -74.2759   24.8412  -76.0403 C.2       6 UNK         0.5007 
     44 O         -73.5789   25.7707  -75.6268 O.2       6 UNK        -0.5032 
     45 CA        -75.3818   24.2695  -75.1361 C.3       5 UNK         0.0783 
     46 C46       -74.7772   23.6544  -73.8520 C.3       11 UNK        -0.0857 
     47 S47       -76.0599   22.9342  -72.7713 S.3       11 UNK        -0.2512 
     48 C48       -75.8699   23.9124  -71.2479 C.3       11 UNK         0.0225 
     49 N         -76.3890   25.2880  -74.8369 N.am      5 UNK        -0.4615 
     50 C         -77.2607   25.7763  -75.7243 C.2       4 UNK         0.5053 
     51 O         -77.2492   25.5010  -76.9269 O.2       4 UNK        -0.5105 
     52 CA        -78.3322   26.7291  -75.1692 C.3       4 UNK         0.0263 
     53 CB        -77.8815   28.1889  -75.3287 C.3       4 UNK        -0.1981 
     54 N         -79.6306   26.5443  -75.8254 N.am      4 UNK        -0.4224 
     55 C         -80.3411   25.4072  -75.8091 C.2       3 UNK         0.4895 
     56 O         -80.0282   24.4054  -75.1621 O.2       3 UNK        -0.5091 
     57 CA        -81.6149   25.3955  -76.6628 C.3       3 UNK         0.0250 
     58 CB        -82.0032   23.9777  -77.1289 C.3       3 UNK        -0.1996 
     59 N         -82.7153   25.9806  -75.9013 N.am      3 UNK        -0.4254 
     60 C         -83.7399   26.6529  -76.4451 C.2       2 UNK         0.5004 
     61 O         -83.8350   26.8829  -77.6518 O.2       2 UNK        -0.5226 
     62 CA        -84.8678   27.1405  -75.5146 C.3       2 UNK         0.0269 
     63 CB        -86.0989   26.2278  -75.6432 C.3       2 UNK        -0.1926 
     64 N         -84.4811   27.2149  -74.1051 N.am      2 UNK        -0.4687 
     65 C         -83.6651   28.1404  -73.5831 C.2       1 UNK         0.5165 
     66 O         -83.2338   29.0939  -74.2345 O.2       1 UNK        -0.5079 
     67 H67       -83.6573   24.4722  -70.1857 H         1 UNK         0.0900 
     68 H68       -82.1691   23.8052  -70.8601 H         1 UNK         0.0900 
     69 H69       -83.7144   23.4958  -71.6555 H         1 UNK         0.0900 
     70 H70       -83.9136   26.6118  -70.6274 H         1 UNK         0.2959 
     71 H71       -84.0960   28.5505  -71.5898 H         1 UNK         0.1079 
     72 H72       -81.8920   28.7026  -70.5896 H         1 UNK         0.0837 
     73 H73       -82.0459   29.7717  -71.9380 H         1 UNK         0.0837 
     74 H74       -79.7148   27.9415  -70.1190 H         1 UNK         0.0685 
     75 H75       -80.2185   26.3752  -70.7152 H         1 UNK         0.0685 
     76 H76       -78.4357   24.8178  -71.0508 H         1 UNK         0.1434 
     77 H77       -74.4226   26.1801  -71.7087 H         1 UNK         0.1329 
     78 H78       -77.6287   29.0105  -71.4304 H         1 UNK         0.1335 
     79 H79       -73.9428   28.4660  -72.0748 H         1 UNK         0.0680 
     80 H80       -74.7911   29.3448  -70.8230 H         1 UNK         0.0680 
     81 H81       -73.2309   30.8227  -72.3111 H         1 UNK         0.1032 
     82 H82       -74.3309   32.1606  -72.4862 H         1 UNK         0.1032 
     83 H83       -74.1528   32.1035  -74.9231 H         1 UNK         0.0461 
     84 H84       -70.1651   32.6773  -74.3550 H         1 UNK         0.3453 
     85 H85       -70.7881   31.0851  -74.7222 H         1 UNK         0.3453 
     86 H86       -73.0973   29.4652  -74.5997 H         1 UNK         0.2984 
     87 H87       -73.3125   28.4486  -77.3996 H         1 UNK         0.0554 
     88 H88       -71.1218   28.0565  -78.5577 H         1 UNK         0.0847 
     89 H89       -70.4787   29.5317  -77.8389 H         1 UNK         0.0847 
     90 H90       -71.8121   29.6124  -78.9809 H         1 UNK         0.0847 
     91 H91       -72.4611   27.1173  -75.8791 H         1 UNK         0.3141 
     92 H92       -69.5418   27.0960  -73.8169 H         1 UNK         0.0743 
     93 H93       -72.5557   26.8758  -73.2885 H         1 UNK         0.0784 
     94 H94       -71.2750   26.2356  -72.2627 H         1 UNK         0.0784 
     95 H95       -71.4475   27.9709  -72.4675 H         1 UNK         0.0784 
     96 H96       -71.6362   25.3525  -75.0315 H         1 UNK         0.3213 
     97 H97       -69.2874   23.5944  -76.9831 H         1 UNK         0.0855 
     98 H98       -70.7241   22.5481  -74.4788 H         1 UNK         0.0814 
     99 H99       -69.0045   22.3957  -74.8091 H         1 UNK         0.0814 
    100 H100      -70.1631   21.5690  -75.8357 H         1 UNK         0.0814 
    101 H101      -72.0897   23.2253  -76.4437 H         1 UNK         0.3105 
    102 H102      -73.3620   25.7382  -78.4852 H         1 UNK         0.0547 
    103 H103      -73.2105   22.8102  -79.3845 H         1 UNK         0.0837 
    104 H104      -74.3984   24.0017  -79.9172 H         1 UNK         0.0837 
    105 H105      -72.7076   24.1957  -80.3418 H         1 UNK         0.0837 
    106 H106      -74.7183   23.5003  -77.4966 H         1 UNK         0.3020 
    107 H107      -75.8892   23.4678  -75.6780 H         1 UNK         0.1245 
    108 H108      -74.0768   22.8567  -74.1068 H         1 UNK         0.0781 
    109 H109      -74.1977   24.3956  -73.2996 H         1 UNK         0.0781 
    110 H110      -76.4191   23.4141  -70.4476 H         1 UNK         0.0836 
    111 H111      -74.8236   23.9027  -70.9380 H         1 UNK         0.0836 
    112 H112      -76.4541   25.5729  -73.8693 H         1 UNK         0.3022 
    113 H113      -78.4669   26.5168  -74.1071 H         1 UNK         0.0747 
    114 H114      -78.5823   28.8761  -74.8543 H         1 UNK         0.0793 
    115 H115      -76.9101   28.3451  -74.8591 H         1 UNK         0.0793 
    116 H116      -77.7844   28.4712  -76.3777 H         1 UNK         0.0793 
    117 H117      -79.9659   27.3162  -76.3824 H         1 UNK         0.3047 
    118 H118      -81.4160   25.9997  -77.5510 H         1 UNK         0.0822 
    119 H119      -82.8528   24.0030  -77.8113 H         1 UNK         0.0807 
    120 H120      -82.2688   23.3361  -76.2877 H         1 UNK         0.0807 
    121 H121      -81.1766   23.5010  -77.6573 H         1 UNK         0.0807 
    122 H122      -82.6738   25.8463  -74.8912 H         1 UNK         0.2946 
    123 H123      -85.1476   28.1428  -75.8477 H         1 UNK         0.1144 
    124 H124      -86.9342   26.6008  -75.0502 H         1 UNK         0.0793 
    125 H125      -85.8819   25.2095  -75.3176 H         1 UNK         0.0793 
    126 H126      -86.4384   26.1731  -76.6786 H         1 UNK         0.0793 
    127 H127      -84.7802   26.4581  -73.5070 H         1 UNK         0.2896 
@<TRIPOS>BOND
     1    1    2 1    
     2    1   67 1    
     3    1   68 1    
     4    1   69 1    
     5    2    3 2    
     6    2    4 am   BACKBONE|DICT|INTERRES
     7    4    5 1    
     8    4   70 1    
     9    5    6 1    
    10    5   65 1    
    11    5   71 1    
    12    6    7 1    
    13    6   72 1    
    14    6   73 1    
    15    7    8 1    
    16    8    9 1    
    17    8   74 1    
    18    8   75 1    
    19    9   10 ar   
    20    9   14 ar   
    21   10   11 ar   
    22   10   76 1    
    23   11   12 ar   
    24   11   48 1    
    25   12   13 ar   
    26   12   77 1    
    27   13   14 ar   
    28   13   15 1    
    29   14   78 1    
    30   15   16 1    
    31   15   79 1    
    32   15   80 1    
    33   16   17 1    
    34   17   18 1    
    35   17   81 1    
    36   17   82 1    
    37   18   19 1    
    38   18   22 1    
    39   18   83 1    
    40   19   20 am   BACKBONE|DICT|INTERRES
    41   19   21 2    
    42   20   84 1    
    43   20   85 1    
    44   22   23 am   BACKBONE|DICT|INTERRES
    45   22   86 1    
    46   23   24 2    
    47   23   25 1    
    48   25   26 1    
    49   25   27 1    
    50   25   87 1    
    51   26   88 1    
    52   26   89 1    
    53   26   90 1    
    54   27   28 am   BACKBONE|DICT|INTERRES
    55   27   91 1    
    56   28   29 2    
    57   28   30 1    
    58   30   31 1    
    59   30   32 1    
    60   30   92 1    
    61   31   93 1    
    62   31   94 1    
    63   31   95 1    
    64   32   33 am   BACKBONE|DICT|INTERRES
    65   32   96 1    
    66   33   34 2    
    67   33   35 1    
    68   35   36 1    
    69   35   37 1    
    70   35   97 1    
    71   36   98 1    
    72   36   99 1    
    73   36  100 1    
    74   37   38 am   BACKBONE|DICT|INTERRES
    75   37  101 1    
    76   38   39 2    
    77   38   40 1    
    78   40   41 1    
    79   40   42 1    
    80   40  102 1    
    81   41  103 1    
    82   41  104 1    
    83   41  105 1    
    84   42   43 am   BACKBONE|DICT|INTERRES
    85   42  106 1    
    86   43   44 2    
    87   43   45 1    
    88   45   46 1    
    89   45   49 1    
    90   45  107 1    
    91   46   47 1    
    92   46  108 1    
    93   46  109 1    
    94   47   48 1    
    95   48  110 1    
    96   48  111 1    
    97   49   50 am   BACKBONE|DICT|INTERRES
    98   49  112 1    
    99   50   51 2    
   100   50   52 1    
   101   52   53 1    
   102   52   54 1    
   103   52  113 1    
   104   53  114 1    
   105   53  115 1    
   106   53  116 1    
   107   54   55 am   BACKBONE|DICT|INTERRES
   108   54  117 1    
   109   55   56 2    
   110   55   57 1    
   111   57   58 1    
   112   57   59 1    
   113   57  118 1    
   114   58  119 1    
   115   58  120 1    
   116   58  121 1    
   117   59   60 am   BACKBONE|DICT|INTERRES
   118   59  122 1    
   119   60   61 2    
   120   60   62 1    
   121   62   63 1    
   122   62   64 1    
   123   62  123 1    
   124   63  124 1    
   125   63  125 1    
   126   63  126 1    
   127   64   65 am   BACKBONE|DICT|INTERRES
   128   64  127 1    
   129   65   66 2    
@<TRIPOS>SUBSTRUCTURE
     1 UNK         1 GROUP             0       ****    0 ROOT    
