@<TRIPOS>MOLECULE
3R135
127   129    1
SMALL
USER_CHARGES


@<TRIPOS>ATOM
      1 CA        -80.5923   21.3233  -71.8709 C.3       0 UNK        -0.1998 
      2 C         -80.1709   22.7715  -72.0644 C.2       0 UNK         0.4909 
      3 O         -79.1318   23.0250  -72.6747 O.2       0 UNK        -0.5240 
      4 N         -80.9795   23.7199  -71.5654 N.am      1 UNK        -0.4739 
      5 CA        -80.7559   25.1727  -71.6243 C.3       1 UNK         0.0864 
      6 C6        -79.6015   25.6151  -70.6848 C.3       11 UNK        -0.0881 
      7 S7        -79.6358   27.3978  -70.2781 S.3       11 UNK        -0.2682 
      8 C8        -77.9188   27.9149  -70.6481 C.3       11 UNK         0.0289 
      9 C9        -77.7865   29.1185  -71.5819 C.ar      11 UNK        -0.0687 
     10 C10       -78.7621   29.4439  -72.5333 C.ar      11 UNK        -0.0823 
     11 C11       -78.5913   30.5380  -73.3884 C.ar      11 UNK        -0.0830 
     12 C12       -77.4295   31.3088  -73.2970 C.ar      11 UNK        -0.1021 
     13 C13       -76.4393   30.9855  -72.3666 C.ar      11 UNK        -0.0753 
     14 C14       -76.6257   29.8953  -71.5118 C.ar      11 UNK        -0.0933 
     15 C15       -75.1537   31.7919  -72.2993 C.3       11 UNK         0.0166 
     16 S16       -73.9134   31.0791  -73.4203 S.3       11 UNK        -0.2615 
     17 C17       -72.3444   31.6010  -72.6372 C.3       11 UNK        -0.0865 
     18 CA        -71.7314   30.5326  -71.6859 C.3       10 UNK         0.0862 
     19 C         -72.3379   30.6098  -70.2527 C.2       10 UNK         0.5551 
     20 N         -72.9857   29.5688  -69.7431 N.am      10 UNK        -0.7319 
     21 O         -72.2102   31.6359  -69.5895 O.2       10 UNK        -0.5018 
     22 N         -71.7547   29.1962  -72.3013 N.am      10 UNK        -0.4509 
     23 C         -70.9854   28.1558  -71.9574 C.2       10 UNK         0.4899 
     24 O         -70.0820   28.2058  -71.1235 O.2       10 UNK        -0.4839 
     25 CA        -71.2834   26.8381  -72.6812 C.3       9 UNK         0.0222 
     26 CB        -72.5270   26.1730  -72.0540 C.3       9 UNK        -0.1966 
     27 N         -71.4608   27.0941  -74.1135 N.am      9 UNK        -0.4218 
     28 C         -71.6488   26.1784  -75.0693 C.2       9 UNK         0.5020 
     29 O         -71.7194   24.9614  -74.8731 O.2       9 UNK        -0.5274 
     30 CA        -71.7389   26.7140  -76.5015 C.3       8 UNK         0.0270 
     31 CB        -70.3386   26.8939  -77.1176 C.3       8 UNK        -0.1976 
     32 N         -72.5191   25.7663  -77.2874 N.am      8 UNK        -0.4313 
     33 C         -73.2058   26.0499  -78.3980 C.2       8 UNK         0.5041 
     34 O         -73.1657   27.1500  -78.9527 O.2       8 UNK        -0.5577 
     35 CA        -74.0688   24.9250  -79.0047 C.3       7 UNK         0.0284 
     36 CB        -73.9274   23.5639  -78.2907 C.3       7 UNK        -0.1958 
     37 N         -75.4771   25.3188  -78.9959 N.am      7 UNK        -0.4454 
     38 C         -76.0866   26.0458  -79.9411 C.2       7 UNK         0.5089 
     39 O         -75.5590   26.3841  -81.0019 O.2       7 UNK        -0.5125 
     40 CA        -77.5428   26.4597  -79.6653 C.3       6 UNK         0.0408 
     41 CB        -78.5111   25.3451  -80.0918 C.3       6 UNK        -0.1791 
     42 N         -77.7914   26.8110  -78.2649 N.am      6 UNK        -0.4762 
     43 C         -77.3012   27.8951  -77.6431 C.2       6 UNK         0.5007 
     44 O         -76.5945   28.7401  -78.1938 O.2       6 UNK        -0.5032 
     45 CA        -77.6663   28.0566  -76.1514 C.3       5 UNK         0.0783 
     46 C46       -79.1081   28.6049  -75.9855 C.3       11 UNK        -0.0857 
     47 S47       -79.1767   30.4227  -76.1041 S.3       11 UNK        -0.2512 
     48 C48       -79.6620   30.8909  -74.4113 C.3       11 UNK         0.0225 
     49 N         -77.4678   26.8089  -75.4076 N.am      5 UNK        -0.4615 
     50 C         -76.2873   26.1986  -75.2296 C.2       4 UNK         0.5053 
     51 O         -75.2094   26.6743  -75.5817 O.2       4 UNK        -0.5105 
     52 CA        -76.3109   24.8048  -74.5764 C.3       4 UNK         0.0263 
     53 CB        -76.2117   24.9216  -73.0518 C.3       4 UNK        -0.1981 
     54 N         -77.5053   24.0314  -74.9265 N.am      4 UNK        -0.4224 
     55 C         -77.7814   23.5948  -76.1637 C.2       3 UNK         0.4895 
     56 O         -77.0277   23.7405  -77.1249 O.2       3 UNK        -0.5091 
     57 CA        -79.1548   22.9420  -76.3797 C.3       3 UNK         0.0250 
     58 CB        -79.1710   21.4924  -75.8687 C.3       3 UNK        -0.1996 
     59 N         -80.2298   23.7146  -75.7525 N.am      3 UNK        -0.4254 
     60 C         -80.6150   24.9323  -76.1623 C.2       2 UNK         0.5004 
     61 O         -80.1356   25.5060  -77.1392 O.2       2 UNK        -0.5226 
     62 CA        -81.6932   25.6485  -75.3315 C.3       2 UNK         0.0269 
     63 CB        -83.0935   25.3232  -75.8741 C.3       2 UNK        -0.1926 
     64 N         -81.6386   25.3351  -73.9003 N.am      2 UNK        -0.4687 
     65 C         -80.6199   25.6542  -73.0878 C.2       1 UNK         0.5165 
     66 O         -79.6047   26.2340  -73.4746 O.2       1 UNK        -0.5079 
     67 H67       -80.7430   20.8440  -72.8377 H         1 UNK         0.0900 
     68 H68       -79.8149   20.7770  -71.3377 H         1 UNK         0.0900 
     69 H69       -81.5175   21.2392  -71.3013 H         1 UNK         0.0900 
     70 H70       -81.8252   23.4359  -71.0896 H         1 UNK         0.2959 
     71 H71       -81.6725   25.6290  -71.2463 H         1 UNK         0.1079 
     72 H72       -79.6857   25.0837  -69.7357 H         1 UNK         0.0837 
     73 H73       -78.6392   25.3124  -71.0928 H         1 UNK         0.0837 
     74 H74       -77.4368   28.1402  -69.6955 H         1 UNK         0.0685 
     75 H75       -77.3498   27.0955  -71.0824 H         1 UNK         0.0685 
     76 H76       -79.6540   28.8399  -72.6198 H         1 UNK         0.1434 
     77 H77       -77.2873   32.1475  -73.9651 H         1 UNK         0.1329 
     78 H78       -75.8527   29.6421  -70.7988 H         1 UNK         0.1335 
     79 H79       -74.7806   31.8026  -71.2747 H         1 UNK         0.0680 
     80 H80       -75.3360   32.8322  -72.5729 H         1 UNK         0.0680 
     81 H81       -71.6373   31.7956  -73.4448 H         1 UNK         0.1032 
     82 H82       -72.4739   32.5635  -72.1380 H         1 UNK         0.1032 
     83 H83       -70.6804   30.7978  -71.5557 H         1 UNK         0.0461 
     84 H84       -73.0839   28.7197  -70.2736 H         1 UNK         0.3453 
     85 H85       -73.3624   29.6313  -68.8107 H         1 UNK         0.3453 
     86 H86       -72.5128   29.0534  -72.9536 H         1 UNK         0.2984 
     87 H87       -70.4229   26.1778  -72.5556 H         1 UNK         0.0554 
     88 H88       -72.4048   26.0538  -70.9765 H         1 UNK         0.0847 
     89 H89       -72.7062   25.1783  -72.4611 H         1 UNK         0.0847 
     90 H90       -73.4254   26.7686  -72.2176 H         1 UNK         0.0847 
     91 H91       -71.3495   28.0593  -74.3944 H         1 UNK         0.3141 
     92 H92       -72.2623   27.6728  -76.4813 H         1 UNK         0.0743 
     93 H93       -69.7946   25.9494  -77.1595 H         1 UNK         0.0784 
     94 H94       -70.3980   27.2904  -78.1313 H         1 UNK         0.0784 
     95 H95       -69.7382   27.5921  -76.5332 H         1 UNK         0.0784 
     96 H96       -72.6171   24.8589  -76.8476 H         1 UNK         0.3213 
     97 H97       -73.7383   24.7924  -80.0371 H         1 UNK         0.0855 
     98 H98       -74.2490   23.6099  -77.2493 H         1 UNK         0.0814 
     99 H99       -72.8960   23.2091  -78.3114 H         1 UNK         0.0814 
    100 H100      -74.5336   22.8029  -78.7828 H         1 UNK         0.0814 
    101 H101      -76.0209   25.0354  -78.1853 H         1 UNK         0.3105 
    102 H102      -77.7568   27.3422  -80.2718 H         1 UNK         0.0547 
    103 H103      -79.5495   25.6577  -79.9797 H         1 UNK         0.0837 
    104 H104      -78.3634   25.0781  -81.1390 H         1 UNK         0.0837 
    105 H105      -78.3700   24.4399  -79.5001 H         1 UNK         0.0837 
    106 H106      -78.4214   26.2005  -77.7501 H         1 UNK         0.3020 
    107 H107      -76.9672   28.7777  -75.7199 H         1 UNK         0.1245 
    108 H108      -79.5158   28.3124  -75.0194 H         1 UNK         0.0781 
    109 H109      -79.7929   28.1798  -76.7216 H         1 UNK         0.0781 
    110 H110      -80.6115   30.4144  -74.1617 H         1 UNK         0.0836 
    111 H111      -79.8469   31.9657  -74.3828 H         1 UNK         0.0836 
    112 H112      -78.2926   26.3926  -74.9881 H         1 UNK         0.3022 
    113 H113      -75.4376   24.2555  -74.9348 H         1 UNK         0.0747 
    114 H114      -77.0606   25.4721  -72.6540 H         1 UNK         0.0793 
    115 H115      -76.1893   23.9418  -72.5744 H         1 UNK         0.0793 
    116 H116      -75.3081   25.4532  -72.7572 H         1 UNK         0.0793 
    117 H117      -78.1678   23.8433  -74.1775 H         1 UNK         0.3047 
    118 H118      -79.3437   22.9204  -77.4554 H         1 UNK         0.0822 
    119 H119      -78.4074   20.8975  -76.3716 H         1 UNK         0.0807 
    120 H120      -80.1314   21.0141  -76.0611 H         1 UNK         0.0807 
    121 H121      -78.9736   21.4323  -74.7986 H         1 UNK         0.0807 
    122 H122      -80.6476   23.3320  -74.9173 H         1 UNK         0.2946 
    123 H123      -81.5259   26.7219  -75.4431 H         1 UNK         0.1144 
    124 H124      -83.8630   25.8972  -75.3574 H         1 UNK         0.0793 
    125 H125      -83.3338   24.2647  -75.7674 H         1 UNK         0.0793 
    126 H126      -83.1669   25.5688  -76.9347 H         1 UNK         0.0793 
    127 H127      -82.4248   24.8324  -73.5136 H         1 UNK         0.2896 
@<TRIPOS>BOND
     1    1    2 1    
     2    1   67 1    
     3    1   68 1    
     4    1   69 1    
     5    2    3 2    
     6    2    4 am   BACKBONE|DICT|INTERRES
     7    4    5 1    
     8    4   70 1    
     9    5    6 1    
    10    5   65 1    
    11    5   71 1    
    12    6    7 1    
    13    6   72 1    
    14    6   73 1    
    15    7    8 1    
    16    8    9 1    
    17    8   74 1    
    18    8   75 1    
    19    9   10 ar   
    20    9   14 ar   
    21   10   11 ar   
    22   10   76 1    
    23   11   12 ar   
    24   11   48 1    
    25   12   13 ar   
    26   12   77 1    
    27   13   14 ar   
    28   13   15 1    
    29   14   78 1    
    30   15   16 1    
    31   15   79 1    
    32   15   80 1    
    33   16   17 1    
    34   17   18 1    
    35   17   81 1    
    36   17   82 1    
    37   18   19 1    
    38   18   22 1    
    39   18   83 1    
    40   19   20 am   BACKBONE|DICT|INTERRES
    41   19   21 2    
    42   20   84 1    
    43   20   85 1    
    44   22   23 am   BACKBONE|DICT|INTERRES
    45   22   86 1    
    46   23   24 2    
    47   23   25 1    
    48   25   26 1    
    49   25   27 1    
    50   25   87 1    
    51   26   88 1    
    52   26   89 1    
    53   26   90 1    
    54   27   28 am   BACKBONE|DICT|INTERRES
    55   27   91 1    
    56   28   29 2    
    57   28   30 1    
    58   30   31 1    
    59   30   32 1    
    60   30   92 1    
    61   31   93 1    
    62   31   94 1    
    63   31   95 1    
    64   32   33 am   BACKBONE|DICT|INTERRES
    65   32   96 1    
    66   33   34 2    
    67   33   35 1    
    68   35   36 1    
    69   35   37 1    
    70   35   97 1    
    71   36   98 1    
    72   36   99 1    
    73   36  100 1    
    74   37   38 am   BACKBONE|DICT|INTERRES
    75   37  101 1    
    76   38   39 2    
    77   38   40 1    
    78   40   41 1    
    79   40   42 1    
    80   40  102 1    
    81   41  103 1    
    82   41  104 1    
    83   41  105 1    
    84   42   43 am   BACKBONE|DICT|INTERRES
    85   42  106 1    
    86   43   44 2    
    87   43   45 1    
    88   45   46 1    
    89   45   49 1    
    90   45  107 1    
    91   46   47 1    
    92   46  108 1    
    93   46  109 1    
    94   47   48 1    
    95   48  110 1    
    96   48  111 1    
    97   49   50 am   BACKBONE|DICT|INTERRES
    98   49  112 1    
    99   50   51 2    
   100   50   52 1    
   101   52   53 1    
   102   52   54 1    
   103   52  113 1    
   104   53  114 1    
   105   53  115 1    
   106   53  116 1    
   107   54   55 am   BACKBONE|DICT|INTERRES
   108   54  117 1    
   109   55   56 2    
   110   55   57 1    
   111   57   58 1    
   112   57   59 1    
   113   57  118 1    
   114   58  119 1    
   115   58  120 1    
   116   58  121 1    
   117   59   60 am   BACKBONE|DICT|INTERRES
   118   59  122 1    
   119   60   61 2    
   120   60   62 1    
   121   62   63 1    
   122   62   64 1    
   123   62  123 1    
   124   63  124 1    
   125   63  125 1    
   126   63  126 1    
   127   64   65 am   BACKBONE|DICT|INTERRES
   128   64  127 1    
   129   65   66 2    
@<TRIPOS>SUBSTRUCTURE
     1 UNK         1 GROUP             0       ****    0 ROOT    
