@<TRIPOS>MOLECULE
3R135
127   129    1
SMALL
USER_CHARGES


@<TRIPOS>ATOM
      1 CA        -85.1731   26.1235  -70.4447 C.3       0 UNK        -0.1998 
      2 C         -84.9024   26.3891  -71.9178 C.2       0 UNK         0.4909 
      3 O         -85.4379   25.6865  -72.7756 O.2       0 UNK        -0.5240 
      4 N         -84.0770   27.4004  -72.2173 N.am      1 UNK        -0.4739 
      5 CA        -83.6668   27.7864  -73.5744 C.3       1 UNK         0.0864 
      6 C6        -83.0664   29.2167  -73.6187 C.3       11 UNK        -0.0881 
      7 S7        -81.8116   29.5441  -72.3309 S.3       11 UNK        -0.2682 
      8 C8        -80.2822   29.4075  -73.2998 C.3       11 UNK         0.0289 
      9 C9        -79.0622   29.3369  -72.3972 C.ar      11 UNK        -0.0687 
     10 C10       -78.8177   28.1779  -71.6562 C.ar      11 UNK        -0.0823 
     11 C11       -77.6518   28.0553  -70.8965 C.ar      11 UNK        -0.0830 
     12 C12       -76.7427   29.1168  -70.8534 C.ar      11 UNK        -0.1021 
     13 C13       -76.9756   30.2811  -71.5908 C.ar      11 UNK        -0.0753 
     14 C14       -78.1465   30.3928  -72.3487 C.ar      11 UNK        -0.0933 
     15 C15       -75.9404   31.3989  -71.5931 C.3       11 UNK         0.0166 
     16 S16       -75.2536   31.7157  -73.2534 S.3       11 UNK        -0.2615 
     17 C17       -74.4399   30.1352  -73.6776 C.3       11 UNK        -0.0865 
     18 CA        -72.8892   30.2433  -73.6824 C.3       10 UNK         0.0862 
     19 C         -72.2794   29.8430  -72.3136 C.2       10 UNK         0.5551 
     20 N         -72.0587   30.8048  -71.4281 N.am      10 UNK        -0.7319 
     21 O         -72.0476   28.6693  -72.0322 O.2       10 UNK        -0.5018 
     22 N         -72.3074   29.4767  -74.7934 N.am      10 UNK        -0.4509 
     23 C         -71.1344   29.7550  -75.3755 C.2       10 UNK         0.4899 
     24 O         -70.3890   30.6629  -75.0023 O.2       10 UNK        -0.4839 
     25 CA        -70.7640   28.9276  -76.6222 C.3       9 UNK         0.0222 
     26 CB        -69.3114   29.1513  -77.0982 C.3       9 UNK        -0.1966 
     27 N         -71.0783   27.4999  -76.5057 N.am      9 UNK        -0.4218 
     28 C         -70.4883   26.5883  -75.7163 C.2       9 UNK         0.5020 
     29 O         -69.5721   26.8543  -74.9368 O.2       9 UNK        -0.5274 
     30 CA        -70.9771   25.1245  -75.8079 C.3       8 UNK         0.0270 
     31 CB        -71.3366   24.5731  -74.4168 C.3       8 UNK        -0.1976 
     32 N         -72.1203   24.9337  -76.7072 N.am      8 UNK        -0.4313 
     33 C         -72.0526   24.8248  -78.0414 C.2       8 UNK         0.5041 
     34 O         -70.9953   24.7902  -78.6712 O.2       8 UNK        -0.5577 
     35 CA        -73.3899   24.8045  -78.8085 C.3       7 UNK         0.0284 
     36 CB        -73.9076   23.3664  -78.9674 C.3       7 UNK        -0.1958 
     37 N         -74.4265   25.6334  -78.1828 N.am      7 UNK        -0.4454 
     38 C         -74.3454   26.9619  -78.0163 C.2       7 UNK         0.5089 
     39 O         -73.4170   27.6494  -78.4400 O.2       7 UNK        -0.5125 
     40 CA        -75.4325   27.6200  -77.1508 C.3       6 UNK         0.0408 
     41 CB        -76.7025   27.9092  -77.9655 C.3       6 UNK        -0.1791 
     42 N         -75.7557   26.8104  -75.9723 N.am      6 UNK        -0.4762 
     43 C         -74.8963   26.5634  -74.9712 C.2       6 UNK         0.5007 
     44 O         -73.7687   27.0481  -74.9160 O.2       6 UNK        -0.5032 
     45 CA        -75.3638   25.6084  -73.8580 C.3       5 UNK         0.0783 
     46 C46       -76.1157   26.4193  -72.7889 C.3       11 UNK        -0.0857 
     47 S47       -76.8353   25.4358  -71.4284 S.3       11 UNK        -0.2512 
     48 C48       -77.3126   26.7312  -70.2232 C.3       11 UNK         0.0225 
     49 N         -76.1583   24.5092  -74.4058 N.am      5 UNK        -0.4615 
     50 C         -75.6407   23.5089  -75.1308 C.2       4 UNK         0.5053 
     51 O         -74.4392   23.3934  -75.3703 O.2       4 UNK        -0.5105 
     52 CA        -76.6331   22.4980  -75.7304 C.3       4 UNK         0.0263 
     53 CB        -76.9236   21.3700  -74.7283 C.3       4 UNK        -0.1981 
     54 N         -77.8932   23.1186  -76.1492 N.am      4 UNK        -0.4224 
     55 C         -77.9985   24.0742  -77.0846 C.2       3 UNK         0.4895 
     56 O         -77.0455   24.4795  -77.7498 O.2       3 UNK        -0.5091 
     57 CA        -79.3827   24.7138  -77.2925 C.3       3 UNK         0.0250 
     58 CB        -80.0651   24.1200  -78.5346 C.3       3 UNK        -0.1996 
     59 N         -80.2761   24.5813  -76.1361 N.am      3 UNK        -0.4254 
     60 C         -80.1050   25.1992  -74.9583 C.2       2 UNK         0.5004 
     61 O         -79.1626   25.9540  -74.7091 O.2       2 UNK        -0.5226 
     62 CA        -81.1349   24.8705  -73.8616 C.3       2 UNK         0.0269 
     63 CB        -80.4389   24.2793  -72.6239 C.3       2 UNK        -0.1926 
     64 N         -81.9525   26.0166  -73.4526 N.am      2 UNK        -0.4687 
     65 C         -82.7544   26.7380  -74.2520 C.2       1 UNK         0.5165 
     66 O         -82.8353   26.5734  -75.4701 O.2       1 UNK        -0.5079 
     67 H67       -86.2387   26.2153  -70.2365 H         1 UNK         0.0900 
     68 H68       -84.6404   26.8224  -69.7998 H         1 UNK         0.0900 
     69 H69       -84.8598   25.1135  -70.1820 H         1 UNK         0.0900 
     70 H70       -83.6665   27.9513  -71.4755 H         1 UNK         0.2959 
     71 H71       -84.5758   27.8099  -74.1805 H         1 UNK         0.1079 
     72 H72       -82.6629   29.4456  -74.6074 H         1 UNK         0.0837 
     73 H73       -83.8702   29.9387  -73.4664 H         1 UNK         0.0837 
     74 H74       -80.2132   30.2540  -73.9847 H         1 UNK         0.0685 
     75 H75       -80.3138   28.5095  -73.9187 H         1 UNK         0.0685 
     76 H76       -79.5072   27.3480  -71.7205 H         1 UNK         0.1434 
     77 H77       -75.8271   29.0153  -70.2865 H         1 UNK         0.1329 
     78 H78       -78.3217   31.2870  -72.9311 H         1 UNK         0.1335 
     79 H79       -76.4071   32.3135  -71.2250 H         1 UNK         0.0680 
     80 H80       -75.1201   31.1756  -70.9090 H         1 UNK         0.0680 
     81 H81       -74.8035   29.8732  -74.6722 H         1 UNK         0.1032 
     82 H82       -74.7885   29.3299  -73.0306 H         1 UNK         0.1032 
     83 H83       -72.6289   31.2883  -73.8661 H         1 UNK         0.0461 
     84 H84       -71.6757   30.5649  -70.5273 H         1 UNK         0.3453 
     85 H85       -72.2621   31.7676  -71.6473 H         1 UNK         0.3453 
     86 H86       -72.8054   28.6297  -75.0568 H         1 UNK         0.2984 
     87 H87       -71.4137   29.2992  -77.4157 H         1 UNK         0.0554 
     88 H88       -69.1388   30.1999  -77.3436 H         1 UNK         0.0847 
     89 H89       -69.0931   28.5709  -77.9945 H         1 UNK         0.0847 
     90 H90       -68.5846   28.8762  -76.3335 H         1 UNK         0.0847 
     91 H91       -71.8434   27.1893  -77.0935 H         1 UNK         0.3141 
     92 H92       -70.1402   24.5368  -76.1905 H         1 UNK         0.0743 
     93 H93       -70.4676   24.5784  -73.7576 H         1 UNK         0.0784 
     94 H94       -72.1098   25.1701  -73.9345 H         1 UNK         0.0784 
     95 H95       -71.6916   23.5439  -74.4743 H         1 UNK         0.0784 
     96 H96       -73.0333   24.8971  -76.2702 H         1 UNK         0.3213 
     97 H97       -73.2024   25.2111  -79.8047 H         1 UNK         0.0855 
     98 H98       -74.1126   22.9009  -78.0034 H         1 UNK         0.0814 
     99 H99       -73.1741   22.7431  -79.4805 H         1 UNK         0.0814 
    100 H100      -74.8260   23.3374  -79.5541 H         1 UNK         0.0814 
    101 H101      -75.2647   25.1585  -77.8544 H         1 UNK         0.3105 
    102 H102      -75.0402   28.5760  -76.7979 H         1 UNK         0.0547 
    103 H103      -76.4832   28.5852  -78.7929 H         1 UNK         0.0837 
    104 H104      -77.1306   27.0045  -78.3958 H         1 UNK         0.0837 
    105 H105      -77.4681   28.3857  -77.3531 H         1 UNK         0.0837 
    106 H106      -76.6651   26.3697  -75.9499 H         1 UNK         0.3020 
    107 H107      -74.4734   25.1810  -73.3916 H         1 UNK         0.1245 
    108 H108      -76.9247   26.9826  -73.2587 H         1 UNK         0.0781 
    109 H109      -75.4342   27.1490  -72.3489 H         1 UNK         0.0781 
    110 H110      -78.1682   26.3829  -69.6431 H         1 UNK         0.0836 
    111 H111      -76.4961   26.8644  -69.5119 H         1 UNK         0.0836 
    112 H112      -77.1567   24.5598  -74.2575 H         1 UNK         0.3022 
    113 H113      -76.1660   22.0616  -76.6158 H         1 UNK         0.0747 
    114 H114      -76.0002   20.8790  -74.4171 H         1 UNK         0.0793 
    115 H115      -77.5633   20.6038  -75.1667 H         1 UNK         0.0793 
    116 H116      -77.4132   21.7434  -73.8277 H         1 UNK         0.0793 
    117 H117      -78.7295   22.8310  -75.6634 H         1 UNK         0.3047 
    118 H118      -79.2221   25.7797  -77.4682 H         1 UNK         0.0822 
    119 H119      -81.0085   24.6232  -78.7479 H         1 UNK         0.0807 
    120 H120      -80.2703   23.0554  -78.4146 H         1 UNK         0.0807 
    121 H121      -79.4340   24.2325  -79.4176 H         1 UNK         0.0807 
    122 H122      -81.0876   23.9933  -76.2633 H         1 UNK         0.2946 
    123 H123      -81.8211   24.1135  -74.2475 H         1 UNK         0.1144 
    124 H124      -79.8304   23.4141  -72.8905 H         1 UNK         0.0793 
    125 H125      -81.1632   23.9468  -71.8802 H         1 UNK         0.0793 
    126 H126      -79.7784   25.0039  -72.1477 H         1 UNK         0.0793 
    127 H127      -81.9574   26.2393  -72.4684 H         1 UNK         0.2896 
@<TRIPOS>BOND
     1    1    2 1    
     2    1   67 1    
     3    1   68 1    
     4    1   69 1    
     5    2    3 2    
     6    2    4 am   BACKBONE|DICT|INTERRES
     7    4    5 1    
     8    4   70 1    
     9    5    6 1    
    10    5   65 1    
    11    5   71 1    
    12    6    7 1    
    13    6   72 1    
    14    6   73 1    
    15    7    8 1    
    16    8    9 1    
    17    8   74 1    
    18    8   75 1    
    19    9   10 ar   
    20    9   14 ar   
    21   10   11 ar   
    22   10   76 1    
    23   11   12 ar   
    24   11   48 1    
    25   12   13 ar   
    26   12   77 1    
    27   13   14 ar   
    28   13   15 1    
    29   14   78 1    
    30   15   16 1    
    31   15   79 1    
    32   15   80 1    
    33   16   17 1    
    34   17   18 1    
    35   17   81 1    
    36   17   82 1    
    37   18   19 1    
    38   18   22 1    
    39   18   83 1    
    40   19   20 am   BACKBONE|DICT|INTERRES
    41   19   21 2    
    42   20   84 1    
    43   20   85 1    
    44   22   23 am   BACKBONE|DICT|INTERRES
    45   22   86 1    
    46   23   24 2    
    47   23   25 1    
    48   25   26 1    
    49   25   27 1    
    50   25   87 1    
    51   26   88 1    
    52   26   89 1    
    53   26   90 1    
    54   27   28 am   BACKBONE|DICT|INTERRES
    55   27   91 1    
    56   28   29 2    
    57   28   30 1    
    58   30   31 1    
    59   30   32 1    
    60   30   92 1    
    61   31   93 1    
    62   31   94 1    
    63   31   95 1    
    64   32   33 am   BACKBONE|DICT|INTERRES
    65   32   96 1    
    66   33   34 2    
    67   33   35 1    
    68   35   36 1    
    69   35   37 1    
    70   35   97 1    
    71   36   98 1    
    72   36   99 1    
    73   36  100 1    
    74   37   38 am   BACKBONE|DICT|INTERRES
    75   37  101 1    
    76   38   39 2    
    77   38   40 1    
    78   40   41 1    
    79   40   42 1    
    80   40  102 1    
    81   41  103 1    
    82   41  104 1    
    83   41  105 1    
    84   42   43 am   BACKBONE|DICT|INTERRES
    85   42  106 1    
    86   43   44 2    
    87   43   45 1    
    88   45   46 1    
    89   45   49 1    
    90   45  107 1    
    91   46   47 1    
    92   46  108 1    
    93   46  109 1    
    94   47   48 1    
    95   48  110 1    
    96   48  111 1    
    97   49   50 am   BACKBONE|DICT|INTERRES
    98   49  112 1    
    99   50   51 2    
   100   50   52 1    
   101   52   53 1    
   102   52   54 1    
   103   52  113 1    
   104   53  114 1    
   105   53  115 1    
   106   53  116 1    
   107   54   55 am   BACKBONE|DICT|INTERRES
   108   54  117 1    
   109   55   56 2    
   110   55   57 1    
   111   57   58 1    
   112   57   59 1    
   113   57  118 1    
   114   58  119 1    
   115   58  120 1    
   116   58  121 1    
   117   59   60 am   BACKBONE|DICT|INTERRES
   118   59  122 1    
   119   60   61 2    
   120   60   62 1    
   121   62   63 1    
   122   62   64 1    
   123   62  123 1    
   124   63  124 1    
   125   63  125 1    
   126   63  126 1    
   127   64   65 am   BACKBONE|DICT|INTERRES
   128   64  127 1    
   129   65   66 2    
@<TRIPOS>SUBSTRUCTURE
     1 UNK         1 GROUP             0       ****    0 ROOT    
