@<TRIPOS>MOLECULE
3R135
127   129    1
SMALL
USER_CHARGES


@<TRIPOS>ATOM
      1 CA        -82.1137   26.5039  -75.2044 C.3       0 UNK        -0.1998 
      2 C         -81.0628   26.4023  -74.1099 C.2       0 UNK         0.4909 
      3 O         -80.0124   25.8004  -74.3184 O.2       0 UNK        -0.5240 
      4 N         -81.3303   26.9733  -72.9310 N.am      1 UNK        -0.4739 
      5 CA        -80.4434   26.8792  -71.7693 C.3       1 UNK         0.0864 
      6 C6        -80.8758   27.8649  -70.6557 C.3       11 UNK        -0.0881 
      7 S7        -79.4598   28.4208  -69.6538 S.3       11 UNK        -0.2682 
      8 C8        -79.3025   30.1559  -70.1840 C.3       11 UNK         0.0289 
      9 C9        -78.6829   30.2874  -71.5693 C.ar      11 UNK        -0.0687 
     10 C10       -79.4792   30.5342  -72.6925 C.ar      11 UNK        -0.0823 
     11 C11       -78.8958   30.7294  -73.9500 C.ar      11 UNK        -0.0830 
     12 C12       -77.5041   30.6705  -74.0777 C.ar      11 UNK        -0.1021 
     13 C13       -76.6983   30.3938  -72.9660 C.ar      11 UNK        -0.0753 
     14 C14       -77.2966   30.2078  -71.7168 C.ar      11 UNK        -0.0933 
     15 C15       -75.1792   30.3055  -73.0841 C.3       11 UNK         0.0166 
     16 S16       -74.5917   29.3198  -74.5010 S.3       11 UNK        -0.2615 
     17 C17       -75.5169   27.7558  -74.3113 C.3       11 UNK        -0.0865 
     18 CA        -74.7885   26.6708  -73.4859 C.3       10 UNK         0.0862 
     19 C         -75.7696   25.4949  -73.1930 C.2       10 UNK         0.5551 
     20 N         -75.5387   24.2854  -73.6892 N.am      10 UNK        -0.7319 
     21 O         -76.7615   25.6918  -72.4949 O.2       10 UNK        -0.5018 
     22 N         -73.5067   26.3043  -74.1127 N.am      10 UNK        -0.4509 
     23 C         -72.5579   25.5365  -73.5619 C.2       10 UNK         0.4899 
     24 O         -72.6369   25.0359  -72.4399 O.2       10 UNK        -0.4839 
     25 CA        -71.2944   25.3024  -74.4053 C.3       9 UNK         0.0222 
     26 CB        -71.5904   24.4032  -75.6179 C.3       9 UNK        -0.1966 
     27 N         -70.7003   26.5627  -74.8526 N.am      9 UNK        -0.4218 
     28 C         -70.0604   27.4322  -74.0595 C.2       9 UNK         0.5020 
     29 O         -69.8363   27.2256  -72.8659 O.2       9 UNK        -0.5274 
     30 CA        -69.5945   28.7664  -74.6745 C.3       8 UNK         0.0270 
     31 CB        -68.1543   28.6613  -75.2153 C.3       8 UNK        -0.1976 
     32 N         -70.5153   29.3377  -75.6689 N.am      8 UNK        -0.4313 
     33 C         -70.8174   28.8835  -76.8920 C.2       8 UNK         0.5041 
     34 O         -70.2995   27.8927  -77.4133 O.2       8 UNK        -0.5577 
     35 CA        -71.9022   29.6697  -77.6475 C.3       7 UNK         0.0284 
     36 CB        -71.2552   30.6916  -78.5966 C.3       7 UNK        -0.1958 
     37 N         -72.8318   28.8281  -78.4090 N.am      7 UNK        -0.4454 
     38 C         -73.5098   27.7718  -77.9399 C.2       7 UNK         0.5089 
     39 O         -73.3701   27.2857  -76.8152 O.2       7 UNK        -0.5125 
     40 CA        -74.5600   27.1673  -78.8805 C.3       6 UNK         0.0408 
     41 CB        -74.2465   25.6926  -79.1801 C.3       6 UNK        -0.1791 
     42 N         -75.8718   27.2596  -78.2461 N.am      6 UNK        -0.4762 
     43 C         -76.6119   28.3700  -78.1329 C.2       6 UNK         0.5007 
     44 O         -76.3215   29.4245  -78.7007 O.2       6 UNK        -0.5032 
     45 CA        -77.8838   28.2869  -77.2463 C.3       5 UNK         0.0783 
     46 C46       -78.7758   29.5499  -77.3698 C.3       11 UNK        -0.0857 
     47 S47       -80.1448   29.5746  -76.1594 S.3       11 UNK        -0.2512 
     48 C48       -79.7705   31.0502  -75.1555 C.3       11 UNK         0.0225 
     49 N         -78.6497   27.0467  -77.4549 N.am      5 UNK        -0.4615 
     50 C         -78.3012   25.8317  -77.0136 C.2       4 UNK         0.5053 
     51 O         -77.2319   25.5917  -76.4462 O.2       4 UNK        -0.5105 
     52 CA        -79.2770   24.6825  -77.2834 C.3       4 UNK         0.0263 
     53 CB        -79.0622   24.0879  -78.6854 C.3       4 UNK        -0.1981 
     54 N         -79.0261   23.6649  -76.2702 N.am      4 UNK        -0.4224 
     55 C         -79.9433   22.8859  -75.6903 C.2       3 UNK         0.4895 
     56 O         -81.1261   22.8345  -76.0305 O.2       3 UNK        -0.5091 
     57 CA        -79.4552   22.0361  -74.5131 C.3       3 UNK         0.0250 
     58 CB        -78.1587   21.2637  -74.8431 C.3       3 UNK        -0.1996 
     59 N         -79.2790   22.8772  -73.3257 N.am      3 UNK        -0.4254 
     60 C         -79.2547   22.4057  -72.0695 C.2       2 UNK         0.5004 
     61 O         -79.3976   21.2133  -71.7939 O.2       2 UNK        -0.5226 
     62 CA        -79.0206   23.3950  -70.9123 C.3       2 UNK         0.0269 
     63 CB        -77.6081   23.2180  -70.3296 C.3       2 UNK        -0.1926 
     64 N         -79.2105   24.7956  -71.2959 N.am      2 UNK        -0.4687 
     65 C         -80.3949   25.4196  -71.2665 C.2       1 UNK         0.5165 
     66 O         -81.4381   24.8819  -70.8850 O.2       1 UNK        -0.5079 
     67 H67       -81.6866   26.9662  -76.0931 H         1 UNK         0.0900 
     68 H68       -82.9716   27.0985  -74.8917 H         1 UNK         0.0900 
     69 H69       -82.4662   25.5088  -75.4749 H         1 UNK         0.0900 
     70 H70       -82.2191   27.4283  -72.7818 H         1 UNK         0.2959 
     71 H71       -79.4454   27.1629  -72.1157 H         1 UNK         0.1079 
     72 H72       -81.3521   28.7433  -71.0926 H         1 UNK         0.0837 
     73 H73       -81.6316   27.4317  -69.9972 H         1 UNK         0.0837 
     74 H74       -80.2768   30.6457  -70.1458 H         1 UNK         0.0685 
     75 H75       -78.6773   30.6822  -69.4610 H         1 UNK         0.0685 
     76 H76       -80.5532   30.5979  -72.5844 H         1 UNK         0.1434 
     77 H77       -77.0461   30.8330  -75.0435 H         1 UNK         0.1329 
     78 H78       -76.6822   30.0113  -70.8485 H         1 UNK         0.1335 
     79 H79       -74.7751   31.3149  -73.1689 H         1 UNK         0.0680 
     80 H80       -74.7491   29.8765  -72.1776 H         1 UNK         0.0680 
     81 H81       -75.6860   27.3631  -75.3124 H         1 UNK         0.1032 
     82 H82       -76.5078   27.9603  -73.9036 H         1 UNK         0.1032 
     83 H83       -74.5482   27.1022  -72.5126 H         1 UNK         0.0461 
     84 H84       -74.7315   24.1242  -74.2680 H         1 UNK         0.3453 
     85 H85       -76.1742   23.5352  -73.4805 H         1 UNK         0.3453 
     86 H86       -73.3610   26.6732  -75.0508 H         1 UNK         0.2984 
     87 H87       -70.5637   24.7864  -73.7788 H         1 UNK         0.0554 
     88 H88       -70.6788   24.1717  -76.1691 H         1 UNK         0.0847 
     89 H89       -72.2892   24.8688  -76.3134 H         1 UNK         0.0847 
     90 H90       -72.0267   23.4545  -75.3026 H         1 UNK         0.0847 
     91 H91       -70.8181   26.8196  -75.8292 H         1 UNK         0.3141 
     92 H92       -69.5771   29.4878  -73.8558 H         1 UNK         0.0743 
     93 H93       -67.4660   28.3575  -74.4255 H         1 UNK         0.0784 
     94 H94       -67.8037   29.6189  -75.6002 H         1 UNK         0.0784 
     95 H95       -68.0688   27.9257  -76.0155 H         1 UNK         0.0784 
     96 H96       -71.0294   30.1440  -75.3398 H         1 UNK         0.3213 
     97 H97       -72.5061   30.2113  -76.9162 H         1 UNK         0.0855 
     98 H98       -70.5760   31.3533  -78.0570 H         1 UNK         0.0814 
     99 H99       -72.0044   31.3223  -79.0757 H         1 UNK         0.0814 
    100 H100      -70.6762   30.2006  -79.3799 H         1 UNK         0.0814 
    101 H101      -73.0252   29.1282  -79.3531 H         1 UNK         0.3105 
    102 H102      -74.5774   27.7180  -79.8234 H         1 UNK         0.0547 
    103 H103      -74.2390   25.0878  -78.2720 H         1 UNK         0.0837 
    104 H104      -73.2665   25.5903  -79.6478 H         1 UNK         0.0837 
    105 H105      -74.9796   25.2620  -79.8623 H         1 UNK         0.0837 
    106 H106      -76.1606   26.4609  -77.6863 H         1 UNK         0.3020 
    107 H107      -77.5276   28.2735  -76.2164 H         1 UNK         0.1245 
    108 H108      -79.2031   29.6161  -78.3719 H         1 UNK         0.0781 
    109 H109      -78.1792   30.4542  -77.2398 H         1 UNK         0.0781 
    110 H110      -80.7157   31.4785  -74.8185 H         1 UNK         0.0836 
    111 H111      -79.3039   31.8226  -75.7684 H         1 UNK         0.0836 
    112 H112      -79.5282   27.1549  -77.9399 H         1 UNK         0.3022 
    113 H113      -80.2976   25.0582  -77.1884 H         1 UNK         0.0747 
    114 H114      -79.7436   23.2574  -78.8705 H         1 UNK         0.0793 
    115 H115      -79.2419   24.8343  -79.4601 H         1 UNK         0.0793 
    116 H116      -78.0433   23.7200  -78.8144 H         1 UNK         0.0793 
    117 H117      -78.0933   23.7138  -75.8785 H         1 UNK         0.3047 
    118 H118      -80.2415   21.3061  -74.3080 H         1 UNK         0.0822 
    119 H119      -77.9271   20.5310  -74.0699 H         1 UNK         0.0807 
    120 H120      -77.2972   21.9248  -74.9385 H         1 UNK         0.0807 
    121 H121      -78.2584   20.7158  -75.7811 H         1 UNK         0.0807 
    122 H122      -79.2377   23.8799  -73.4843 H         1 UNK         0.2946 
    123 H123      -79.7351   23.1391  -70.1263 H         1 UNK         0.1144 
    124 H124      -77.4646   22.2026  -69.9578 H         1 UNK         0.0793 
    125 H125      -77.4355   23.8957  -69.4934 H         1 UNK         0.0793 
    126 H126      -76.8344   23.4012  -71.0749 H         1 UNK         0.0793 
    127 H127      -78.3933   25.2741  -71.6722 H         1 UNK         0.2896 
@<TRIPOS>BOND
     1    1    2 1    
     2    1   67 1    
     3    1   68 1    
     4    1   69 1    
     5    2    3 2    
     6    2    4 am   BACKBONE|DICT|INTERRES
     7    4    5 1    
     8    4   70 1    
     9    5    6 1    
    10    5   65 1    
    11    5   71 1    
    12    6    7 1    
    13    6   72 1    
    14    6   73 1    
    15    7    8 1    
    16    8    9 1    
    17    8   74 1    
    18    8   75 1    
    19    9   10 ar   
    20    9   14 ar   
    21   10   11 ar   
    22   10   76 1    
    23   11   12 ar   
    24   11   48 1    
    25   12   13 ar   
    26   12   77 1    
    27   13   14 ar   
    28   13   15 1    
    29   14   78 1    
    30   15   16 1    
    31   15   79 1    
    32   15   80 1    
    33   16   17 1    
    34   17   18 1    
    35   17   81 1    
    36   17   82 1    
    37   18   19 1    
    38   18   22 1    
    39   18   83 1    
    40   19   20 am   BACKBONE|DICT|INTERRES
    41   19   21 2    
    42   20   84 1    
    43   20   85 1    
    44   22   23 am   BACKBONE|DICT|INTERRES
    45   22   86 1    
    46   23   24 2    
    47   23   25 1    
    48   25   26 1    
    49   25   27 1    
    50   25   87 1    
    51   26   88 1    
    52   26   89 1    
    53   26   90 1    
    54   27   28 am   BACKBONE|DICT|INTERRES
    55   27   91 1    
    56   28   29 2    
    57   28   30 1    
    58   30   31 1    
    59   30   32 1    
    60   30   92 1    
    61   31   93 1    
    62   31   94 1    
    63   31   95 1    
    64   32   33 am   BACKBONE|DICT|INTERRES
    65   32   96 1    
    66   33   34 2    
    67   33   35 1    
    68   35   36 1    
    69   35   37 1    
    70   35   97 1    
    71   36   98 1    
    72   36   99 1    
    73   36  100 1    
    74   37   38 am   BACKBONE|DICT|INTERRES
    75   37  101 1    
    76   38   39 2    
    77   38   40 1    
    78   40   41 1    
    79   40   42 1    
    80   40  102 1    
    81   41  103 1    
    82   41  104 1    
    83   41  105 1    
    84   42   43 am   BACKBONE|DICT|INTERRES
    85   42  106 1    
    86   43   44 2    
    87   43   45 1    
    88   45   46 1    
    89   45   49 1    
    90   45  107 1    
    91   46   47 1    
    92   46  108 1    
    93   46  109 1    
    94   47   48 1    
    95   48  110 1    
    96   48  111 1    
    97   49   50 am   BACKBONE|DICT|INTERRES
    98   49  112 1    
    99   50   51 2    
   100   50   52 1    
   101   52   53 1    
   102   52   54 1    
   103   52  113 1    
   104   53  114 1    
   105   53  115 1    
   106   53  116 1    
   107   54   55 am   BACKBONE|DICT|INTERRES
   108   54  117 1    
   109   55   56 2    
   110   55   57 1    
   111   57   58 1    
   112   57   59 1    
   113   57  118 1    
   114   58  119 1    
   115   58  120 1    
   116   58  121 1    
   117   59   60 am   BACKBONE|DICT|INTERRES
   118   59  122 1    
   119   60   61 2    
   120   60   62 1    
   121   62   63 1    
   122   62   64 1    
   123   62  123 1    
   124   63  124 1    
   125   63  125 1    
   126   63  126 1    
   127   64   65 am   BACKBONE|DICT|INTERRES
   128   64  127 1    
   129   65   66 2    
@<TRIPOS>SUBSTRUCTURE
     1 UNK         1 GROUP             0       ****    0 ROOT    
