@<TRIPOS>MOLECULE
3R135
127   129    1
SMALL
USER_CHARGES


@<TRIPOS>ATOM
      1 CA        -76.6205   26.1249  -71.7348 C.3       0 UNK        -0.1998 
      2 C         -77.9821   25.4887  -71.5016 C.2       0 UNK         0.4909 
      3 O         -78.0653   24.4686  -70.8172 O.2       0 UNK        -0.5240 
      4 N         -79.0399   26.0744  -72.0735 N.am      1 UNK        -0.4739 
      5 CA        -80.4222   25.5874  -72.0016 C.3       1 UNK         0.0864 
      6 C6        -81.3659   26.5960  -71.2952 C.3       11 UNK        -0.0881 
      7 S7        -80.8119   27.0406  -69.6124 S.3       11 UNK        -0.2682 
      8 C8        -80.5969   28.8456  -69.7452 C.3       11 UNK         0.0289 
      9 C9        -79.4539   29.2366  -70.6736 C.ar      11 UNK        -0.0687 
     10 C10       -79.7197   29.6764  -71.9735 C.ar      11 UNK        -0.0823 
     11 C11       -78.6794   30.0703  -72.8186 C.ar      11 UNK        -0.0830 
     12 C12       -77.3637   30.0296  -72.3466 C.ar      11 UNK        -0.1021 
     13 C13       -77.0753   29.5874  -71.0491 C.ar      11 UNK        -0.0753 
     14 C14       -78.1321   29.1943  -70.2205 C.ar      11 UNK        -0.0933 
     15 C15       -75.6498   29.5416  -70.4937 C.3       11 UNK         0.0166 
     16 S16       -74.3333   29.3133  -71.7399 S.3       11 UNK        -0.2615 
     17 C17       -73.8926   31.0465  -72.1341 C.3       11 UNK        -0.0865 
     18 CA        -72.5917   31.1822  -72.9695 C.3       10 UNK         0.0862 
     19 C         -71.3128   30.9264  -72.1148 C.2       10 UNK         0.5551 
     20 N         -70.4678   29.9527  -72.4342 N.am      10 UNK        -0.7319 
     21 O         -71.0758   31.6428  -71.1451 O.2       10 UNK        -0.5018 
     22 N         -72.6778   30.4098  -74.2168 N.am      10 UNK        -0.4509 
     23 C         -71.9243   30.6023  -75.3063 C.2       10 UNK         0.4899 
     24 O         -71.1503   31.5511  -75.4428 O.2       10 UNK        -0.4839 
     25 CA        -72.0540   29.5422  -76.4208 C.3       9 UNK         0.0222 
     26 CB        -70.8301   29.5075  -77.3597 C.3       9 UNK        -0.1966 
     27 N         -72.3514   28.1957  -75.9112 N.am      9 UNK        -0.4218 
     28 C         -71.6206   27.4782  -75.0421 C.2       9 UNK         0.5020 
     29 O         -70.5667   27.8714  -74.5400 O.2       9 UNK        -0.5274 
     30 CA        -72.1709   26.1042  -74.6302 C.3       8 UNK         0.0270 
     31 CB        -73.1232   26.2472  -73.4322 C.3       8 UNK        -0.1976 
     32 N         -72.8599   25.4055  -75.7155 N.am      8 UNK        -0.4313 
     33 C         -72.2572   24.8665  -76.7842 C.2       8 UNK         0.5041 
     34 O         -71.0408   24.8942  -76.9757 O.2       8 UNK        -0.5577 
     35 CA        -73.1678   24.1779  -77.8132 C.3       7 UNK         0.0284 
     36 CB        -73.6063   22.7888  -77.3200 C.3       7 UNK        -0.1958 
     37 N         -74.3461   24.9888  -78.1214 N.am      7 UNK        -0.4454 
     38 C         -74.3332   26.0660  -78.9182 C.2       7 UNK         0.5089 
     39 O         -73.3404   26.4527  -79.5350 O.2       7 UNK        -0.5125 
     40 CA        -75.6490   26.8530  -79.0455 C.3       6 UNK         0.0408 
     41 CB        -76.4642   26.3516  -80.2476 C.3       6 UNK        -0.1791 
     42 N         -76.4725   26.7953  -77.8345 N.am      6 UNK        -0.4762 
     43 C         -76.1587   27.4142  -76.6855 C.2       6 UNK         0.5007 
     44 O         -75.1266   28.0660  -76.5259 O.2       6 UNK        -0.5032 
     45 CA        -77.1269   27.2270  -75.4952 C.3       5 UNK         0.0783 
     46 C46       -78.3393   28.1891  -75.5873 C.3       11 UNK        -0.0857 
     47 S47       -77.8849   29.9564  -75.5148 S.3       11 UNK        -0.2512 
     48 C48       -78.9967   30.5933  -74.2166 C.3       11 UNK         0.0225 
     49 N         -77.5685   25.8331  -75.3508 N.am      5 UNK        -0.4615 
     50 C         -76.7596   24.7666  -75.2604 C.2       4 UNK         0.5053 
     51 O         -75.5366   24.8517  -75.1707 O.2       4 UNK        -0.5105 
     52 CA        -77.3902   23.3660  -75.3401 C.3       4 UNK         0.0263 
     53 CB        -77.5785   22.7695  -73.9383 C.3       4 UNK        -0.1981 
     54 N         -78.6621   23.3059  -76.0613 N.am      4 UNK        -0.4224 
     55 C         -78.8880   23.6743  -77.3287 C.2       3 UNK         0.4895 
     56 O         -78.0185   24.1357  -78.0684 O.2       3 UNK        -0.5091 
     57 CA        -80.3329   23.5470  -77.8526 C.3       3 UNK         0.0250 
     58 CB        -80.5979   22.1367  -78.4146 C.3       3 UNK        -0.1996 
     59 N         -81.3659   23.9561  -76.8843 N.am      3 UNK        -0.4254 
     60 C         -81.6925   23.3856  -75.7148 C.2       2 UNK         0.5004 
     61 O         -81.2062   22.3331  -75.2948 O.2       2 UNK        -0.5226 
     62 CA        -82.6592   24.1709  -74.8138 C.3       2 UNK         0.0269 
     63 CB        -83.9309   23.3550  -74.5282 C.3       2 UNK        -0.1926 
     64 N         -82.0218   24.5414  -73.5441 N.am      2 UNK        -0.4687 
     65 C         -80.9231   25.3029  -73.4299 C.2       1 UNK         0.5165 
     66 O         -80.3333   25.7932  -74.3978 O.2       1 UNK        -0.5079 
     67 H67       -76.6968   27.0520  -72.2998 H         1 UNK         0.0900 
     68 H68       -76.1438   26.3521  -70.7819 H         1 UNK         0.0900 
     69 H69       -75.9743   25.4420  -72.2851 H         1 UNK         0.0900 
     70 H70       -78.9121   26.8925  -72.6515 H         1 UNK         0.2959 
     71 H71       -80.4572   24.6421  -71.4558 H         1 UNK         0.1079 
     72 H72       -82.3681   26.1737  -71.2016 H         1 UNK         0.0837 
     73 H73       -81.4845   27.4986  -71.8952 H         1 UNK         0.0837 
     74 H74       -80.4047   29.2475  -68.7493 H         1 UNK         0.0685 
     75 H75       -81.5340   29.2966  -70.0754 H         1 UNK         0.0685 
     76 H76       -80.7420   29.7295  -72.3219 H         1 UNK         0.1434 
     77 H77       -76.5697   30.3484  -73.0032 H         1 UNK         0.1329 
     78 H78       -77.9288   28.8588  -69.2125 H         1 UNK         0.1335 
     79 H79       -75.5692   28.7126  -69.7890 H         1 UNK         0.0680 
     80 H80       -75.4628   30.4479  -69.9167 H         1 UNK         0.0680 
     81 H81       -73.8105   31.6176  -71.2073 H         1 UNK         0.1032 
     82 H82       -74.7148   31.5065  -72.6815 H         1 UNK         0.1032 
     83 H83       -72.5239   32.2319  -73.2619 H         1 UNK         0.0461 
     84 H84       -70.6334   29.3484  -73.2324 H         1 UNK         0.3453 
     85 H85       -69.6464   29.8137  -71.8684 H         1 UNK         0.3453 
     86 H86       -73.2787   29.5993  -74.1838 H         1 UNK         0.2984 
     87 H87       -72.9189   29.8358  -77.0173 H         1 UNK         0.0554 
     88 H88       -70.6830   30.4707  -77.8496 H         1 UNK         0.0847 
     89 H89       -70.9556   28.7618  -78.1451 H         1 UNK         0.0847 
     90 H90       -69.9124   29.2738  -76.8189 H         1 UNK         0.0847 
     91 H91       -73.2530   27.8257  -76.2035 H         1 UNK         0.3141 
     92 H92       -71.3233   25.4900  -74.3187 H         1 UNK         0.0743 
     93 H93       -72.6329   26.7535  -72.5994 H         1 UNK         0.0784 
     94 H94       -74.0119   26.8251  -73.6895 H         1 UNK         0.0784 
     95 H95       -73.4529   25.2732  -73.0704 H         1 UNK         0.0784 
     96 H96       -73.8664   25.2792  -75.6066 H         1 UNK         0.3213 
     97 H97       -72.5919   24.0412  -78.7314 H         1 UNK         0.0855 
     98 H98       -74.1730   22.8437  -76.3903 H         1 UNK         0.0814 
     99 H99       -72.7394   22.1537  -77.1329 H         1 UNK         0.0814 
    100 H100      -74.2249   22.2815  -78.0606 H         1 UNK         0.0814 
    101 H101      -75.2056   24.7607  -77.6417 H         1 UNK         0.3105 
    102 H102      -75.3909   27.8987  -79.2270 H         1 UNK         0.0547 
    103 H103      -77.3770   26.9324  -80.3800 H         1 UNK         0.0837 
    104 H104      -75.8891   26.4384  -81.1704 H         1 UNK         0.0837 
    105 H105      -76.7451   25.3036  -80.1385 H         1 UNK         0.0837 
    106 H106      -77.2902   26.1972  -77.8668 H         1 UNK         0.3020 
    107 H107      -76.5625   27.4768  -74.5953 H         1 UNK         0.1245 
    108 H108      -79.0286   27.9845  -74.7685 H         1 UNK         0.0781 
    109 H109      -78.9062   28.0124  -76.5032 H         1 UNK         0.0781 
    110 H110      -80.0258   30.3609  -74.4956 H         1 UNK         0.0836 
    111 H111      -78.9223   31.6813  -74.2005 H         1 UNK         0.0836 
    112 H112      -78.5723   25.6799  -75.3415 H         1 UNK         0.3022 
    113 H113      -76.6844   22.7353  -75.8839 H         1 UNK         0.0747 
    114 H114      -77.8296   21.7101  -73.9918 H         1 UNK         0.0793 
    115 H115      -76.6678   22.8563  -73.3435 H         1 UNK         0.0793 
    116 H116      -78.3779   23.2712  -73.3934 H         1 UNK         0.0793 
    117 H117      -79.4574   22.9204  -75.5575 H         1 UNK         0.3047 
    118 H118      -80.4187   24.2482  -78.6844 H         1 UNK         0.0822 
    119 H119      -79.8892   21.8974  -79.2085 H         1 UNK         0.0807 
    120 H120      -81.5985   22.0614  -78.8402 H         1 UNK         0.0807 
    121 H121      -80.4987   21.3640  -77.6518 H         1 UNK         0.0807 
    122 H122      -81.8011   24.8434  -77.0974 H         1 UNK         0.2946 
    123 H123      -82.9512   25.0930  -75.3214 H         1 UNK         0.1144 
    124 H124      -84.6456   23.9262  -73.9354 H         1 UNK         0.0793 
    125 H125      -83.7075   22.4331  -73.9893 H         1 UNK         0.0793 
    126 H126      -84.4314   23.0759  -75.4565 H         1 UNK         0.0793 
    127 H127      -82.4402   24.1594  -72.7082 H         1 UNK         0.2896 
@<TRIPOS>BOND
     1    1    2 1    
     2    1   67 1    
     3    1   68 1    
     4    1   69 1    
     5    2    3 2    
     6    2    4 am   BACKBONE|DICT|INTERRES
     7    4    5 1    
     8    4   70 1    
     9    5    6 1    
    10    5   65 1    
    11    5   71 1    
    12    6    7 1    
    13    6   72 1    
    14    6   73 1    
    15    7    8 1    
    16    8    9 1    
    17    8   74 1    
    18    8   75 1    
    19    9   10 ar   
    20    9   14 ar   
    21   10   11 ar   
    22   10   76 1    
    23   11   12 ar   
    24   11   48 1    
    25   12   13 ar   
    26   12   77 1    
    27   13   14 ar   
    28   13   15 1    
    29   14   78 1    
    30   15   16 1    
    31   15   79 1    
    32   15   80 1    
    33   16   17 1    
    34   17   18 1    
    35   17   81 1    
    36   17   82 1    
    37   18   19 1    
    38   18   22 1    
    39   18   83 1    
    40   19   20 am   BACKBONE|DICT|INTERRES
    41   19   21 2    
    42   20   84 1    
    43   20   85 1    
    44   22   23 am   BACKBONE|DICT|INTERRES
    45   22   86 1    
    46   23   24 2    
    47   23   25 1    
    48   25   26 1    
    49   25   27 1    
    50   25   87 1    
    51   26   88 1    
    52   26   89 1    
    53   26   90 1    
    54   27   28 am   BACKBONE|DICT|INTERRES
    55   27   91 1    
    56   28   29 2    
    57   28   30 1    
    58   30   31 1    
    59   30   32 1    
    60   30   92 1    
    61   31   93 1    
    62   31   94 1    
    63   31   95 1    
    64   32   33 am   BACKBONE|DICT|INTERRES
    65   32   96 1    
    66   33   34 2    
    67   33   35 1    
    68   35   36 1    
    69   35   37 1    
    70   35   97 1    
    71   36   98 1    
    72   36   99 1    
    73   36  100 1    
    74   37   38 am   BACKBONE|DICT|INTERRES
    75   37  101 1    
    76   38   39 2    
    77   38   40 1    
    78   40   41 1    
    79   40   42 1    
    80   40  102 1    
    81   41  103 1    
    82   41  104 1    
    83   41  105 1    
    84   42   43 am   BACKBONE|DICT|INTERRES
    85   42  106 1    
    86   43   44 2    
    87   43   45 1    
    88   45   46 1    
    89   45   49 1    
    90   45  107 1    
    91   46   47 1    
    92   46  108 1    
    93   46  109 1    
    94   47   48 1    
    95   48  110 1    
    96   48  111 1    
    97   49   50 am   BACKBONE|DICT|INTERRES
    98   49  112 1    
    99   50   51 2    
   100   50   52 1    
   101   52   53 1    
   102   52   54 1    
   103   52  113 1    
   104   53  114 1    
   105   53  115 1    
   106   53  116 1    
   107   54   55 am   BACKBONE|DICT|INTERRES
   108   54  117 1    
   109   55   56 2    
   110   55   57 1    
   111   57   58 1    
   112   57   59 1    
   113   57  118 1    
   114   58  119 1    
   115   58  120 1    
   116   58  121 1    
   117   59   60 am   BACKBONE|DICT|INTERRES
   118   59  122 1    
   119   60   61 2    
   120   60   62 1    
   121   62   63 1    
   122   62   64 1    
   123   62  123 1    
   124   63  124 1    
   125   63  125 1    
   126   63  126 1    
   127   64   65 am   BACKBONE|DICT|INTERRES
   128   64  127 1    
   129   65   66 2    
@<TRIPOS>SUBSTRUCTURE
     1 UNK         1 GROUP             0       ****    0 ROOT    
