@<TRIPOS>MOLECULE
3R135
127   129    1
SMALL
USER_CHARGES


@<TRIPOS>ATOM
      1 CA        -83.9952   24.8133  -74.9555 C.3       0 UNK        -0.1998 
      2 C         -82.9696   25.8467  -75.3942 C.2       0 UNK         0.4909 
      3 O         -82.7323   26.0020  -76.5928 O.2       0 UNK        -0.5240 
      4 N         -82.3513   26.5477  -74.4340 N.am      1 UNK        -0.4739 
      5 CA        -81.2955   27.5439  -74.6463 C.3       1 UNK         0.0864 
      6 C6        -80.9141   28.2944  -73.3397 C.3       11 UNK        -0.0881 
      7 S7        -80.6621   27.2224  -71.8799 S.3       11 UNK        -0.2682 
      8 C8        -79.8902   28.3738  -70.6979 C.3       11 UNK         0.0289 
      9 C9        -78.3736   28.2416  -70.6835 C.ar      11 UNK        -0.0687 
     10 C10       -77.7853   27.1016  -70.1319 C.ar      11 UNK        -0.0823 
     11 C11       -76.3955   26.9610  -70.0991 C.ar      11 UNK        -0.0830 
     12 C12       -75.5898   27.9855  -70.6026 C.ar      11 UNK        -0.1021 
     13 C13       -76.1617   29.1391  -71.1556 C.ar      11 UNK        -0.0753 
     14 C14       -77.5568   29.2583  -71.1869 C.ar      11 UNK        -0.0933 
     15 C15       -75.3106   30.2896  -71.6923 C.3       11 UNK         0.0166 
     16 S16       -73.6827   29.8000  -72.3621 S.3       11 UNK        -0.2615 
     17 C17       -73.1405   31.3830  -73.0869 C.3       11 UNK        -0.0865 
     18 CA        -73.2229   31.3684  -74.6421 C.3       10 UNK         0.0862 
     19 C         -73.2069   32.7982  -75.2696 C.2       10 UNK         0.5551 
     20 N         -72.7089   32.9775  -76.4874 N.am      10 UNK        -0.7319 
     21 O         -73.6823   33.7562  -74.6645 O.2       10 UNK        -0.5018 
     22 N         -72.2809   30.4147  -75.2643 N.am      10 UNK        -0.4509 
     23 C         -70.9426   30.5160  -75.2470 C.2       10 UNK         0.4899 
     24 O         -70.3343   31.3961  -74.6350 O.2       10 UNK        -0.4839 
     25 CA        -70.1490   29.4995  -76.0945 C.3       9 UNK         0.0222 
     26 CB        -68.6306   29.5404  -75.8156 C.3       9 UNK        -0.1966 
     27 N         -70.6466   28.1230  -76.0133 N.am      9 UNK        -0.4218 
     28 C         -70.7365   27.3353  -74.9329 C.2       9 UNK         0.5020 
     29 O         -70.4433   27.6964  -73.7919 O.2       9 UNK        -0.5274 
     30 CA        -71.2184   25.8887  -75.1884 C.3       8 UNK         0.0270 
     31 CB        -71.3314   25.0657  -73.8911 C.3       8 UNK        -0.1976 
     32 N         -72.5030   25.8415  -75.8934 N.am      8 UNK        -0.4313 
     33 C         -72.6978   26.1200  -77.1926 C.2       8 UNK         0.5041 
     34 O         -71.7777   26.3735  -77.9719 O.2       8 UNK        -0.5577 
     35 CA        -74.1506   26.1940  -77.7040 C.3       7 UNK         0.0284 
     36 CB        -74.5418   24.8863  -78.4087 C.3       7 UNK        -0.1958 
     37 N         -75.1174   26.4881  -76.6437 N.am      7 UNK        -0.4454 
     38 C         -75.1229   27.6098  -75.9095 C.2       7 UNK         0.5089 
     39 O         -74.4375   28.5962  -76.1817 O.2       7 UNK        -0.5125 
     40 CA        -75.9860   27.6235  -74.6319 C.3       6 UNK         0.0408 
     41 CB        -77.0575   28.7217  -74.7083 C.3       6 UNK        -0.1791 
     42 N         -76.5865   26.3345  -74.2368 N.am      6 UNK        -0.4762 
     43 C         -75.8722   25.2622  -73.8505 C.2       6 UNK         0.5007 
     44 O         -74.6522   25.1910  -74.0071 O.2       6 UNK        -0.5032 
     45 CA        -76.6006   24.0551  -73.2214 C.3       5 UNK         0.0783 
     46 C46       -76.6677   24.0914  -71.6647 C.3       11 UNK        -0.0857 
     47 S47       -75.1370   24.5686  -70.7818 S.3       11 UNK        -0.2512 
     48 C48       -75.7657   25.7083  -69.5048 C.3       11 UNK         0.0225 
     49 N         -77.9339   23.8388  -73.7944 N.am      5 UNK        -0.4615 
     50 C         -78.5727   22.6625  -73.7261 C.2       4 UNK         0.5053 
     51 O         -78.0479   21.6222  -73.3273 O.2       4 UNK        -0.5105 
     52 CA        -80.0501   22.6352  -74.1364 C.3       4 UNK         0.0263 
     53 CB        -80.9175   23.3706  -73.1008 C.3       4 UNK        -0.1981 
     54 N         -80.2515   23.2221  -75.4581 N.am      4 UNK        -0.4224 
     55 C         -80.2978   22.5211  -76.6004 C.2       3 UNK         0.4895 
     56 O         -80.1879   21.2957  -76.6567 O.2       3 UNK        -0.5091 
     57 CA        -80.5208   23.3041  -77.9075 C.3       3 UNK         0.0250 
     58 CB        -81.9685   23.1376  -78.3979 C.3       3 UNK        -0.1996 
     59 N         -80.2129   24.7300  -77.7779 N.am      3 UNK        -0.4254 
     60 C         -78.9653   25.2205  -77.7556 C.2       2 UNK         0.5004 
     61 O         -77.9569   24.5312  -77.9009 O.2       2 UNK        -0.5226 
     62 CA        -78.8044   26.7231  -77.4776 C.3       2 UNK         0.0269 
     63 CB        -78.7323   27.5172  -78.7903 C.3       2 UNK        -0.1926 
     64 N         -79.8526   27.2838  -76.6178 N.am      2 UNK        -0.4687 
     65 C         -80.0768   26.9131  -75.3491 C.2       1 UNK         0.5165 
     66 O         -79.3930   26.0721  -74.7600 O.2       1 UNK        -0.5079 
     67 H67       -83.6766   23.8168  -75.2600 H         1 UNK         0.0900 
     68 H68       -84.1342   24.8108  -73.8746 H         1 UNK         0.0900 
     69 H69       -84.9583   25.0207  -75.4209 H         1 UNK         0.0900 
     70 H70       -82.5605   26.3591  -73.4635 H         1 UNK         0.2959 
     71 H71       -81.7097   28.2917  -75.3264 H         1 UNK         0.1079 
     72 H72       -80.0307   28.9163  -73.4909 H         1 UNK         0.0837 
     73 H73       -81.7156   28.9906  -73.0878 H         1 UNK         0.0837 
     74 H74       -80.2722   28.1538  -69.7000 H         1 UNK         0.0685 
     75 H75       -80.1949   29.3980  -70.9185 H         1 UNK         0.0685 
     76 H76       -78.4171   26.3183  -69.7357 H         1 UNK         0.1434 
     77 H77       -74.5153   27.8754  -70.5609 H         1 UNK         0.1329 
     78 H78       -78.0094   30.1486  -71.6018 H         1 UNK         0.1335 
     79 H79       -75.8583   30.8081  -72.4809 H         1 UNK         0.0680 
     80 H80       -75.1588   31.0115  -70.8889 H         1 UNK         0.0680 
     81 H81       -72.1253   31.5954  -72.7506 H         1 UNK         0.1032 
     82 H82       -73.7554   32.1806  -72.6670 H         1 UNK         0.1032 
     83 H83       -74.2142   30.9944  -74.8995 H         1 UNK         0.0461 
     84 H84       -72.3352   32.1988  -77.0051 H         1 UNK         0.3453 
     85 H85       -72.7117   33.9006  -76.8919 H         1 UNK         0.3453 
     86 H86       -72.7231   29.6557  -75.7719 H         1 UNK         0.2984 
     87 H87       -70.2942   29.8044  -77.1317 H         1 UNK         0.0554 
     88 H88       -68.2225   30.5339  -76.0061 H         1 UNK         0.0847 
     89 H89       -68.0895   28.8434  -76.4555 H         1 UNK         0.0847 
     90 H90       -68.4037   29.2896  -74.7788 H         1 UNK         0.0847 
     91 H91       -70.9398   27.7025  -76.8934 H         1 UNK         0.3141 
     92 H92       -70.4658   25.4092  -75.8178 H         1 UNK         0.0743 
     93 H93       -70.3711   25.0108  -73.3767 H         1 UNK         0.0784 
     94 H94       -72.0490   25.5058  -73.1970 H         1 UNK         0.0784 
     95 H95       -71.6484   24.0428  -74.0946 H         1 UNK         0.0784 
     96 H96       -73.3168   25.6624  -75.3085 H         1 UNK         0.3213 
     97 H97       -74.1970   27.0055  -78.4334 H         1 UNK         0.0855 
     98 H98       -74.5855   24.0476  -77.7129 H         1 UNK         0.0814 
     99 H99       -73.8203   24.6296  -79.1858 H         1 UNK         0.0814 
    100 H100      -75.5142   24.9742  -78.8927 H         1 UNK         0.0814 
    101 H101      -75.7028   25.7239  -76.3383 H         1 UNK         0.3105 
    102 H102      -75.3116   27.8927  -73.8185 H         1 UNK         0.0547 
    103 H103      -77.6492   28.6652  -75.6188 H         1 UNK         0.0837 
    104 H104      -76.5919   29.7078  -74.6983 H         1 UNK         0.0837 
    105 H105      -77.7348   28.6764  -73.8587 H         1 UNK         0.0837 
    106 H106      -77.5971   26.3206  -74.1439 H         1 UNK         0.3020 
    107 H107      -75.9860   23.1938  -73.4945 H         1 UNK         0.1245 
    108 H108      -76.9538   23.1083  -71.2890 H         1 UNK         0.0781 
    109 H109      -77.4780   24.7536  -71.3653 H         1 UNK         0.0781 
    110 H110      -74.9397   25.9950  -68.8524 H         1 UNK         0.0836 
    111 H111      -76.4799   25.1783  -68.8725 H         1 UNK         0.0836 
    112 H112      -78.4313   24.6532  -74.1462 H         1 UNK         0.3022 
    113 H113      -80.3717   21.5912  -74.1447 H         1 UNK         0.0747 
    114 H114      -80.6835   24.4336  -73.0510 H         1 UNK         0.0793 
    115 H115      -81.9774   23.2702  -73.3312 H         1 UNK         0.0793 
    116 H116      -80.7652   22.9589  -72.1022 H         1 UNK         0.0793 
    117 H117      -80.2826   24.2318  -75.5044 H         1 UNK         0.3047 
    118 H118      -79.8586   22.8732  -78.6619 H         1 UNK         0.0822 
    119 H119      -82.1304   23.6576  -79.3422 H         1 UNK         0.0807 
    120 H120      -82.6892   23.5215  -77.6758 H         1 UNK         0.0807 
    121 H121      -82.2049   22.0856  -78.5638 H         1 UNK         0.0807 
    122 H122      -80.9956   25.3551  -77.6120 H         1 UNK         0.2946 
    123 H123      -77.8521   26.8362  -76.9625 H         1 UNK         0.1144 
    124 H124      -78.5115   28.5688  -78.6063 H         1 UNK         0.0793 
    125 H125      -79.6675   27.4610  -79.3488 H         1 UNK         0.0793 
    126 H126      -77.9421   27.1311  -79.4362 H         1 UNK         0.0793 
    127 H127      -80.4817   27.9458  -77.0505 H         1 UNK         0.2896 
@<TRIPOS>BOND
     1    1    2 1    
     2    1   67 1    
     3    1   68 1    
     4    1   69 1    
     5    2    3 2    
     6    2    4 am   BACKBONE|DICT|INTERRES
     7    4    5 1    
     8    4   70 1    
     9    5    6 1    
    10    5   65 1    
    11    5   71 1    
    12    6    7 1    
    13    6   72 1    
    14    6   73 1    
    15    7    8 1    
    16    8    9 1    
    17    8   74 1    
    18    8   75 1    
    19    9   10 ar   
    20    9   14 ar   
    21   10   11 ar   
    22   10   76 1    
    23   11   12 ar   
    24   11   48 1    
    25   12   13 ar   
    26   12   77 1    
    27   13   14 ar   
    28   13   15 1    
    29   14   78 1    
    30   15   16 1    
    31   15   79 1    
    32   15   80 1    
    33   16   17 1    
    34   17   18 1    
    35   17   81 1    
    36   17   82 1    
    37   18   19 1    
    38   18   22 1    
    39   18   83 1    
    40   19   20 am   BACKBONE|DICT|INTERRES
    41   19   21 2    
    42   20   84 1    
    43   20   85 1    
    44   22   23 am   BACKBONE|DICT|INTERRES
    45   22   86 1    
    46   23   24 2    
    47   23   25 1    
    48   25   26 1    
    49   25   27 1    
    50   25   87 1    
    51   26   88 1    
    52   26   89 1    
    53   26   90 1    
    54   27   28 am   BACKBONE|DICT|INTERRES
    55   27   91 1    
    56   28   29 2    
    57   28   30 1    
    58   30   31 1    
    59   30   32 1    
    60   30   92 1    
    61   31   93 1    
    62   31   94 1    
    63   31   95 1    
    64   32   33 am   BACKBONE|DICT|INTERRES
    65   32   96 1    
    66   33   34 2    
    67   33   35 1    
    68   35   36 1    
    69   35   37 1    
    70   35   97 1    
    71   36   98 1    
    72   36   99 1    
    73   36  100 1    
    74   37   38 am   BACKBONE|DICT|INTERRES
    75   37  101 1    
    76   38   39 2    
    77   38   40 1    
    78   40   41 1    
    79   40   42 1    
    80   40  102 1    
    81   41  103 1    
    82   41  104 1    
    83   41  105 1    
    84   42   43 am   BACKBONE|DICT|INTERRES
    85   42  106 1    
    86   43   44 2    
    87   43   45 1    
    88   45   46 1    
    89   45   49 1    
    90   45  107 1    
    91   46   47 1    
    92   46  108 1    
    93   46  109 1    
    94   47   48 1    
    95   48  110 1    
    96   48  111 1    
    97   49   50 am   BACKBONE|DICT|INTERRES
    98   49  112 1    
    99   50   51 2    
   100   50   52 1    
   101   52   53 1    
   102   52   54 1    
   103   52  113 1    
   104   53  114 1    
   105   53  115 1    
   106   53  116 1    
   107   54   55 am   BACKBONE|DICT|INTERRES
   108   54  117 1    
   109   55   56 2    
   110   55   57 1    
   111   57   58 1    
   112   57   59 1    
   113   57  118 1    
   114   58  119 1    
   115   58  120 1    
   116   58  121 1    
   117   59   60 am   BACKBONE|DICT|INTERRES
   118   59  122 1    
   119   60   61 2    
   120   60   62 1    
   121   62   63 1    
   122   62   64 1    
   123   62  123 1    
   124   63  124 1    
   125   63  125 1    
   126   63  126 1    
   127   64   65 am   BACKBONE|DICT|INTERRES
   128   64  127 1    
   129   65   66 2    
@<TRIPOS>SUBSTRUCTURE
     1 UNK         1 GROUP             0       ****    0 ROOT    
