@<TRIPOS>MOLECULE
3R135
127   129    1
SMALL
USER_CHARGES


@<TRIPOS>ATOM
      1 CA        -83.5761   26.2733  -71.5947 C.3       0 UNK        -0.1998 
      2 C         -82.4616   26.6525  -72.5576 C.2       0 UNK         0.4909 
      3 O         -81.4028   26.0270  -72.5351 O.2       0 UNK        -0.5240 
      4 N         -82.6987   27.6733  -73.3952 N.am      1 UNK        -0.4739 
      5 CA        -81.7700   28.2111  -74.4036 C.3       1 UNK         0.0864 
      6 C6        -80.5087   28.8795  -73.7899 C.3       11 UNK        -0.0881 
      7 S7        -80.9377   30.3389  -72.7778 S.3       11 UNK        -0.2682 
      8 C8        -80.6003   29.7597  -71.0821 C.3       11 UNK         0.0289 
      9 C9        -79.1231   29.4715  -70.8498 C.ar      11 UNK        -0.0687 
     10 C10       -78.7031   28.1812  -70.5087 C.ar      11 UNK        -0.0823 
     11 C11       -77.3442   27.9036  -70.3306 C.ar      11 UNK        -0.0830 
     12 C12       -76.4077   28.9307  -70.4731 C.ar      11 UNK        -0.1021 
     13 C13       -76.8132   30.2183  -70.8278 C.ar      11 UNK        -0.0753 
     14 C14       -78.1735   30.4889  -70.9980 C.ar      11 UNK        -0.0933 
     15 C15       -75.7701   31.2956  -71.0699 C.3       11 UNK         0.0166 
     16 S16       -75.1981   31.2503  -72.8010 S.3       11 UNK        -0.2615 
     17 C17       -73.3949   31.4881  -72.6106 C.3       11 UNK        -0.0865 
     18 CA        -72.5570   30.2067  -72.8788 C.3       10 UNK         0.0862 
     19 C         -72.7807   29.0845  -71.8272 C.2       10 UNK         0.5551 
     20 N         -73.1126   27.8586  -72.2153 N.am      10 UNK        -0.7319 
     21 O         -72.6203   29.3243  -70.6333 O.2       10 UNK        -0.5018 
     22 N         -72.6425   29.7493  -74.2745 N.am      10 UNK        -0.4509 
     23 C         -71.9024   30.2299  -75.2789 C.2       10 UNK         0.4899 
     24 O         -71.1155   31.1719  -75.1644 O.2       10 UNK        -0.4839 
     25 CA        -72.0614   29.5124  -76.6314 C.3       9 UNK         0.0222 
     26 CB        -71.1377   30.0714  -77.7340 C.3       9 UNK        -0.1966 
     27 N         -71.9048   28.0595  -76.5037 N.am      9 UNK        -0.4218 
     28 C         -70.8333   27.3690  -76.0823 C.2       9 UNK         0.5020 
     29 O         -69.7612   27.8818  -75.7590 O.2       9 UNK        -0.5274 
     30 CA        -70.9795   25.8356  -75.9975 C.3       8 UNK         0.0270 
     31 CB        -71.1933   25.3969  -74.5394 C.3       8 UNK        -0.1976 
     32 N         -72.0748   25.3078  -76.8160 N.am      8 UNK        -0.4313 
     33 C         -72.0830   25.2643  -78.1559 C.2       8 UNK         0.5041 
     34 O         -71.1153   25.5543  -78.8599 O.2       8 UNK        -0.5577 
     35 CA        -73.4182   24.8860  -78.8191 C.3       7 UNK         0.0284 
     36 CB        -73.5979   23.3601  -78.8771 C.3       7 UNK        -0.1958 
     37 N         -74.5566   25.5030  -78.1298 N.am      7 UNK        -0.4454 
     38 C         -74.8376   26.8141  -78.1628 C.2       7 UNK         0.5089 
     39 O         -74.2169   27.6296  -78.8431 O.2       7 UNK        -0.5125 
     40 CA        -75.9743   27.3124  -77.2581 C.3       6 UNK         0.0408 
     41 CB        -77.3108   27.2996  -78.0152 C.3       6 UNK        -0.1791 
     42 N         -76.1011   26.5264  -76.0308 N.am      6 UNK        -0.4762 
     43 C         -75.2893   26.6325  -74.9666 C.2       6 UNK         0.5007 
     44 O         -74.3346   27.4098  -74.8971 O.2       6 UNK        -0.5032 
     45 CA        -75.5896   25.6964  -73.7769 C.3       5 UNK         0.0783 
     46 C46       -76.7157   26.3316  -72.9313 C.3       11 UNK        -0.0857 
     47 S47       -77.1961   25.3526  -71.4628 S.3       11 UNK        -0.2512 
     48 C48       -76.8665   26.4820  -70.0641 C.3       11 UNK         0.0225 
     49 N         -75.9346   24.3375  -74.1973 N.am      5 UNK        -0.4615 
     50 C         -75.2446   23.5568  -75.0383 C.2       4 UNK         0.5053 
     51 O         -74.1297   23.8424  -75.4739 O.2       4 UNK        -0.5105 
     52 CA        -75.9434   22.2753  -75.5355 C.3       4 UNK         0.0263 
     53 CB        -75.3489   21.0408  -74.8406 C.3       4 UNK        -0.1981 
     54 N         -77.4056   22.2705  -75.3693 N.am      4 UNK        -0.4224 
     55 C         -78.2548   23.1831  -75.8667 C.2       3 UNK         0.4895 
     56 O         -77.9004   24.1409  -76.5619 O.2       3 UNK        -0.5091 
     57 CA        -79.7268   23.0316  -75.4608 C.3       3 UNK         0.0250 
     58 CB        -79.9008   23.0948  -73.9289 C.3       3 UNK        -0.1996 
     59 N         -80.4986   24.1060  -76.0749 N.am      3 UNK        -0.4254 
     60 C         -81.8033   24.0830  -76.3540 C.2       2 UNK         0.5004 
     61 O         -82.5369   23.1179  -76.1291 O.2       2 UNK        -0.5226 
     62 CA        -82.3839   25.3765  -76.9542 C.3       2 UNK         0.0269 
     63 CB        -83.7804   25.1668  -77.5695 C.3       2 UNK        -0.1926 
     64 N         -82.4679   26.4309  -75.9410 N.am      2 UNK        -0.4687 
     65 C         -81.4405   27.1731  -75.5016 C.2       1 UNK         0.5165 
     66 O         -80.2927   27.0610  -75.9371 O.2       1 UNK        -0.5079 
     67 H67       -83.8789   25.2398  -71.7611 H         1 UNK         0.0900 
     68 H68       -84.4539   26.9081  -71.7141 H         1 UNK         0.0900 
     69 H69       -83.2286   26.3654  -70.5660 H         1 UNK         0.0900 
     70 H70       -83.5918   28.1442  -73.3472 H         1 UNK         0.2959 
     71 H71       -82.3200   28.9943  -74.9283 H         1 UNK         0.1079 
     72 H72       -79.9301   28.1616  -73.2070 H         1 UNK         0.0837 
     73 H73       -79.8386   29.2312  -74.5765 H         1 UNK         0.0837 
     74 H74       -81.2091   28.8777  -70.8788 H         1 UNK         0.0685 
     75 H75       -80.9250   30.5264  -70.3776 H         1 UNK         0.0685 
     76 H76       -79.4266   27.3816  -70.4209 H         1 UNK         0.1434 
     77 H77       -75.3539   28.7184  -70.3574 H         1 UNK         0.1329 
     78 H78       -78.4926   31.4827  -71.2814 H         1 UNK         0.1335 
     79 H79       -74.9362   31.1473  -70.3823 H         1 UNK         0.0680 
     80 H80       -76.1786   32.2832  -70.8503 H         1 UNK         0.0680 
     81 H81       -73.1684   31.8886  -71.6213 H         1 UNK         0.1032 
     82 H82       -73.0891   32.2712  -73.3058 H         1 UNK         0.1032 
     83 H83       -71.5144   30.4850  -72.7117 H         1 UNK         0.0461 
     84 H84       -73.2155   27.1441  -71.5136 H         1 UNK         0.3453 
     85 H85       -73.2864   27.6496  -73.1876 H         1 UNK         0.3453 
     86 H86       -73.2860   28.9864  -74.4609 H         1 UNK         0.2984 
     87 H87       -73.0915   29.6806  -76.9493 H         1 UNK         0.0554 
     88 H88       -71.3021   29.5600  -78.6826 H         1 UNK         0.0847 
     89 H89       -70.0839   29.9667  -77.4744 H         1 UNK         0.0847 
     90 H90       -71.3274   31.1324  -77.9004 H         1 UNK         0.0847 
     91 H91       -72.7406   27.5241  -76.6925 H         1 UNK         0.3141 
     92 H92       -70.0454   25.3975  -76.3551 H         1 UNK         0.0743 
     93 H93       -70.3899   25.7609  -73.8975 H         1 UNK         0.0784 
     94 H94       -72.1316   25.7789  -74.1372 H         1 UNK         0.0784 
     95 H95       -71.2121   24.3104  -74.4517 H         1 UNK         0.0784 
     96 H96       -72.8881   24.9505  -76.3173 H         1 UNK         0.3213 
     97 H97       -73.3991   25.2626  -79.8444 H         1 UNK         0.0855 
     98 H98       -73.5857   22.9065  -77.8863 H         1 UNK         0.0814 
     99 H99       -72.7932   22.8993  -79.4515 H         1 UNK         0.0814 
    100 H100      -74.5363   23.0881  -79.3606 H         1 UNK         0.0814 
    101 H101      -75.1059   24.9113  -77.5230 H         1 UNK         0.3105 
    102 H102      -75.7517   28.3459  -76.9832 H         1 UNK         0.0547 
    103 H103      -77.6081   26.2891  -78.2979 H         1 UNK         0.0837 
    104 H104      -78.1106   27.7267  -77.4105 H         1 UNK         0.0837 
    105 H105      -77.2476   27.8901  -78.9301 H         1 UNK         0.0837 
    106 H106      -76.8371   25.8265  -76.0186 H         1 UNK         0.3020 
    107 H107      -74.6850   25.6258  -73.1707 H         1 UNK         0.1245 
    108 H108      -77.6195   26.4666  -73.5302 H         1 UNK         0.0781 
    109 H109      -76.4086   27.3343  -72.6381 H         1 UNK         0.0781 
    110 H110      -77.3601   26.0961  -69.1713 H         1 UNK         0.0836 
    111 H111      -75.7963   26.4677  -69.8514 H         1 UNK         0.0836 
    112 H112      -76.8279   24.0011  -73.8712 H         1 UNK         0.3022 
    113 H113      -75.7397   22.1977  -76.6052 H         1 UNK         0.0747 
    114 H114      -74.2664   21.0020  -74.9723 H         1 UNK         0.0793 
    115 H115      -75.7552   20.1172  -75.2533 H         1 UNK         0.0793 
    116 H116      -75.5463   21.0471  -73.7678 H         1 UNK         0.0793 
    117 H117      -77.7844   21.5202  -74.8090 H         1 UNK         0.3047 
    118 H118      -80.0822   22.0697  -75.8362 H         1 UNK         0.0822 
    119 H119      -79.3778   22.2810  -73.4262 H         1 UNK         0.0807 
    120 H120      -80.9509   23.0180  -73.6458 H         1 UNK         0.0807 
    121 H121      -79.5218   24.0333  -73.5205 H         1 UNK         0.0807 
    122 H122      -79.9654   24.9442  -76.2869 H         1 UNK         0.2946 
    123 H123      -81.7125   25.7009  -77.7531 H         1 UNK         0.1144 
    124 H124      -84.5142   24.8670  -76.8201 H         1 UNK         0.0793 
    125 H125      -83.7568   24.3879  -78.3328 H         1 UNK         0.0793 
    126 H126      -84.1431   26.0766  -78.0484 H         1 UNK         0.0793 
    127 H127      -83.3665   26.5580  -75.4983 H         1 UNK         0.2896 
@<TRIPOS>BOND
     1    1    2 1    
     2    1   67 1    
     3    1   68 1    
     4    1   69 1    
     5    2    3 2    
     6    2    4 am   BACKBONE|DICT|INTERRES
     7    4    5 1    
     8    4   70 1    
     9    5    6 1    
    10    5   65 1    
    11    5   71 1    
    12    6    7 1    
    13    6   72 1    
    14    6   73 1    
    15    7    8 1    
    16    8    9 1    
    17    8   74 1    
    18    8   75 1    
    19    9   10 ar   
    20    9   14 ar   
    21   10   11 ar   
    22   10   76 1    
    23   11   12 ar   
    24   11   48 1    
    25   12   13 ar   
    26   12   77 1    
    27   13   14 ar   
    28   13   15 1    
    29   14   78 1    
    30   15   16 1    
    31   15   79 1    
    32   15   80 1    
    33   16   17 1    
    34   17   18 1    
    35   17   81 1    
    36   17   82 1    
    37   18   19 1    
    38   18   22 1    
    39   18   83 1    
    40   19   20 am   BACKBONE|DICT|INTERRES
    41   19   21 2    
    42   20   84 1    
    43   20   85 1    
    44   22   23 am   BACKBONE|DICT|INTERRES
    45   22   86 1    
    46   23   24 2    
    47   23   25 1    
    48   25   26 1    
    49   25   27 1    
    50   25   87 1    
    51   26   88 1    
    52   26   89 1    
    53   26   90 1    
    54   27   28 am   BACKBONE|DICT|INTERRES
    55   27   91 1    
    56   28   29 2    
    57   28   30 1    
    58   30   31 1    
    59   30   32 1    
    60   30   92 1    
    61   31   93 1    
    62   31   94 1    
    63   31   95 1    
    64   32   33 am   BACKBONE|DICT|INTERRES
    65   32   96 1    
    66   33   34 2    
    67   33   35 1    
    68   35   36 1    
    69   35   37 1    
    70   35   97 1    
    71   36   98 1    
    72   36   99 1    
    73   36  100 1    
    74   37   38 am   BACKBONE|DICT|INTERRES
    75   37  101 1    
    76   38   39 2    
    77   38   40 1    
    78   40   41 1    
    79   40   42 1    
    80   40  102 1    
    81   41  103 1    
    82   41  104 1    
    83   41  105 1    
    84   42   43 am   BACKBONE|DICT|INTERRES
    85   42  106 1    
    86   43   44 2    
    87   43   45 1    
    88   45   46 1    
    89   45   49 1    
    90   45  107 1    
    91   46   47 1    
    92   46  108 1    
    93   46  109 1    
    94   47   48 1    
    95   48  110 1    
    96   48  111 1    
    97   49   50 am   BACKBONE|DICT|INTERRES
    98   49  112 1    
    99   50   51 2    
   100   50   52 1    
   101   52   53 1    
   102   52   54 1    
   103   52  113 1    
   104   53  114 1    
   105   53  115 1    
   106   53  116 1    
   107   54   55 am   BACKBONE|DICT|INTERRES
   108   54  117 1    
   109   55   56 2    
   110   55   57 1    
   111   57   58 1    
   112   57   59 1    
   113   57  118 1    
   114   58  119 1    
   115   58  120 1    
   116   58  121 1    
   117   59   60 am   BACKBONE|DICT|INTERRES
   118   59  122 1    
   119   60   61 2    
   120   60   62 1    
   121   62   63 1    
   122   62   64 1    
   123   62  123 1    
   124   63  124 1    
   125   63  125 1    
   126   63  126 1    
   127   64   65 am   BACKBONE|DICT|INTERRES
   128   64  127 1    
   129   65   66 2    
@<TRIPOS>SUBSTRUCTURE
     1 UNK         1 GROUP             0       ****    0 ROOT    
