@<TRIPOS>MOLECULE
3R135
127   129    1
SMALL
USER_CHARGES


@<TRIPOS>ATOM
      1 CA        -85.3040   27.8645  -73.8172 C.3       0 UNK        -0.1998 
      2 C         -83.8137   27.8495  -73.5133 C.2       0 UNK         0.4909 
      3 O         -83.1529   28.8809  -73.6362 O.2       0 UNK        -0.5240 
      4 N         -83.2755   26.6852  -73.1237 N.am      1 UNK        -0.4739 
      5 CA        -81.8569   26.4897  -72.7914 C.3       1 UNK         0.0864 
      6 C6        -81.6847   25.3894  -71.7122 C.3       11 UNK        -0.0881 
      7 S7        -80.1132   25.4237  -70.7748 S.3       11 UNK        -0.2682 
      8 C8        -80.0568   27.0936  -70.0398 C.3       11 UNK         0.0289 
      9 C9        -78.9636   27.9525  -70.6688 C.ar      11 UNK        -0.0687 
     10 C10       -79.2755   28.9471  -71.6036 C.ar      11 UNK        -0.0823 
     11 C11       -78.2686   29.7297  -72.1780 C.ar      11 UNK        -0.0830 
     12 C12       -76.9442   29.5426  -71.7768 C.ar      11 UNK        -0.1021 
     13 C13       -76.6178   28.5604  -70.8395 C.ar      11 UNK        -0.0753 
     14 C14       -77.6287   27.7637  -70.2934 C.ar      11 UNK        -0.0933 
     15 C15       -75.1700   28.3809  -70.4189 C.3       11 UNK         0.0166 
     16 S16       -74.2164   27.5299  -71.7103 S.3       11 UNK        -0.2615 
     17 C17       -72.5247   28.0482  -71.2635 C.3       11 UNK        -0.0865 
     18 CA        -72.0442   29.2781  -72.0795 C.3       10 UNK         0.0862 
     19 C         -70.6335   29.7166  -71.5979 C.2       10 UNK         0.5551 
     20 N         -70.5524   30.7509  -70.7722 N.am      10 UNK        -0.7319 
     21 O         -69.6244   29.0951  -71.9240 O.2       10 UNK        -0.5018 
     22 N         -72.1121   28.9996  -73.5204 N.am      10 UNK        -0.4509 
     23 C         -71.7374   29.7981  -74.5289 C.2       10 UNK         0.4899 
     24 O         -71.3340   30.9522  -74.3785 O.2       10 UNK        -0.4839 
     25 CA        -71.8693   29.2162  -75.9549 C.3       9 UNK         0.0222 
     26 CB        -70.7629   29.7190  -76.9071 C.3       9 UNK        -0.1966 
     27 N         -71.9810   27.7474  -75.9824 N.am      9 UNK        -0.4218 
     28 C         -71.0451   26.8619  -75.6005 C.2       9 UNK         0.5020 
     29 O         -69.8954   27.1669  -75.2831 O.2       9 UNK        -0.5274 
     30 CA        -71.4648   25.3895  -75.4962 C.3       8 UNK         0.0270 
     31 CB        -71.7812   25.0357  -74.0322 C.3       8 UNK        -0.1976 
     32 N         -72.6271   25.0601  -76.3222 N.am      8 UNK        -0.4313 
     33 C         -72.5471   24.5679  -77.5645 C.2       8 UNK         0.5041 
     34 O         -71.4919   24.4376  -78.1867 O.2       8 UNK        -0.5577 
     35 CA        -73.8619   24.1106  -78.2090 C.3       7 UNK         0.0284 
     36 CB        -74.3995   22.8511  -77.5108 C.3       7 UNK        -0.1958 
     37 N         -74.8833   25.1557  -78.1882 N.am      7 UNK        -0.4454 
     38 C         -74.9781   26.1355  -79.0960 C.2       7 UNK         0.5089 
     39 O         -74.1849   26.2892  -80.0253 O.2       7 UNK        -0.5125 
     40 CA        -76.1754   27.0919  -78.9701 C.3       6 UNK         0.0408 
     41 CB        -77.3059   26.6581  -79.9168 C.3       6 UNK        -0.1791 
     42 N         -76.6935   27.1780  -77.6021 N.am      6 UNK        -0.4762 
     43 C         -76.1429   27.9496  -76.6534 C.2       6 UNK         0.5007 
     44 O         -75.1358   28.6332  -76.8341 O.2       6 UNK        -0.5032 
     45 CA        -76.8101   27.9395  -75.2650 C.3       5 UNK         0.0783 
     46 C46       -78.0763   28.8405  -75.2456 C.3       11 UNK        -0.0857 
     47 S47       -77.6854   30.5633  -74.7896 S.3       11 UNK        -0.2512 
     48 C48       -78.6155   30.7773  -73.2308 C.3       11 UNK         0.0225 
     49 N         -77.0821   26.5918  -74.7564 N.am      5 UNK        -0.4615 
     50 C         -76.1770   25.6145  -74.5953 C.2       4 UNK         0.5053 
     51 O         -75.0143   25.6729  -74.9961 O.2       4 UNK        -0.5105 
     52 CA        -76.6564   24.3450  -73.8828 C.3       4 UNK         0.0263 
     53 CB        -76.8398   24.6106  -72.3806 C.3       4 UNK        -0.1981 
     54 N         -77.9173   23.8912  -74.4667 N.am      4 UNK        -0.4224 
     55 C         -78.0201   22.9040  -75.3676 C.2       3 UNK         0.4895 
     56 O         -77.0882   22.1662  -75.6863 O.2       3 UNK        -0.5091 
     57 CA        -79.3865   22.6978  -76.0486 C.3       3 UNK         0.0250 
     58 CB        -80.1679   21.5728  -75.3507 C.3       3 UNK        -0.1996 
     59 N         -80.2218   23.9000  -76.1011 N.am      3 UNK        -0.4254 
     60 C         -79.9032   25.0462  -76.7196 C.2       2 UNK         0.5004 
     61 O         -78.8644   25.2280  -77.3542 O.2       2 UNK        -0.5226 
     62 CA        -80.8855   26.2147  -76.5417 C.3       2 UNK         0.0269 
     63 CB        -81.9314   26.2144  -77.6672 C.3       2 UNK        -0.1926 
     64 N         -81.5673   26.2486  -75.2402 N.am      2 UNK        -0.4687 
     65 C         -80.9665   26.2774  -74.0390 C.2       1 UNK         0.5165 
     66 O         -79.7489   26.1531  -73.9033 O.2       1 UNK        -0.5079 
     67 H67       -85.4734   28.1654  -74.8508 H         1 UNK         0.0900 
     68 H68       -85.7611   26.8862  -73.6691 H         1 UNK         0.0900 
     69 H69       -85.8114   28.5771  -73.1675 H         1 UNK         0.0900 
     70 H70       -83.8649   25.8676  -73.0442 H         1 UNK         0.2959 
     71 H71       -81.5148   27.4235  -72.3573 H         1 UNK         0.1079 
     72 H72       -82.4830   25.4731  -70.9726 H         1 UNK         0.0837 
     73 H73       -81.7999   24.3986  -72.1554 H         1 UNK         0.0837 
     74 H74       -81.0302   27.5804  -70.1096 H         1 UNK         0.0685 
     75 H75       -79.8561   26.9907  -68.9724 H         1 UNK         0.0685 
     76 H76       -80.3019   29.1234  -71.8876 H         1 UNK         0.1434 
     77 H77       -76.1612   30.1514  -72.2084 H         1 UNK         0.1329 
     78 H78       -77.3795   26.9977  -69.5718 H         1 UNK         0.1335 
     79 H79       -74.7344   29.3622  -70.2242 H         1 UNK         0.0680 
     80 H80       -75.0994   27.8178  -69.4871 H         1 UNK         0.0680 
     81 H81       -72.4836   28.2537  -70.1918 H         1 UNK         0.1032 
     82 H82       -71.8573   27.1996  -71.4280 H         1 UNK         0.1032 
     83 H83       -72.7374   30.1009  -71.8936 H         1 UNK         0.0461 
     84 H84       -69.6469   31.0383  -70.4348 H         1 UNK         0.3453 
     85 H85       -71.3755   31.2610  -70.4915 H         1 UNK         0.3453 
     86 H86       -72.4515   28.0806  -73.7579 H         1 UNK         0.2984 
     87 H87       -72.8141   29.5984  -76.3388 H         1 UNK         0.0554 
     88 H88       -70.8052   30.8034  -77.0154 H         1 UNK         0.0847 
     89 H89       -70.8722   29.2916  -77.9037 H         1 UNK         0.0847 
     90 H90       -69.7661   29.4719  -76.5416 H         1 UNK         0.0847 
     91 H91       -72.8954   27.3905  -76.2279 H         1 UNK         0.3141 
     92 H92       -70.6106   24.7837  -75.8072 H         1 UNK         0.0743 
     93 H93       -72.6313   25.6025  -73.6509 H         1 UNK         0.0784 
     94 H94       -72.0124   23.9761  -73.9229 H         1 UNK         0.0784 
     95 H95       -70.9300   25.2493  -73.3841 H         1 UNK         0.0784 
     96 H96       -73.5421   25.1701  -75.8835 H         1 UNK         0.3213 
     97 H97       -73.6500   23.8465  -79.2479 H         1 UNK         0.0855 
     98 H98       -74.6374   23.0360  -76.4626 H         1 UNK         0.0814 
     99 H99       -73.6648   22.0454  -77.5398 H         1 UNK         0.0814 
    100 H100      -75.3031   22.4824  -77.9967 H         1 UNK         0.0814 
    101 H101      -75.5610   25.1310  -77.4396 H         1 UNK         0.3105 
    102 H102      -75.8421   28.0836  -79.2840 H         1 UNK         0.0547 
    103 H103      -76.9683   26.6650  -80.9540 H         1 UNK         0.0837 
    104 H104      -77.6536   25.6482  -79.6967 H         1 UNK         0.0837 
    105 H105      -78.1618   27.3298  -79.8500 H         1 UNK         0.0837 
    106 H106      -77.4958   26.5926  -77.3793 H         1 UNK         0.3020 
    107 H107      -76.0788   28.3534  -74.5662 H         1 UNK         0.1245 
    108 H108      -78.8058   28.4627  -74.5312 H         1 UNK         0.0781 
    109 H109      -78.5969   28.8405  -76.2050 H         1 UNK         0.0781 
    110 H110      -79.6825   30.7594  -73.4590 H         1 UNK         0.0836 
    111 H111      -78.4047   31.7683  -72.8269 H         1 UNK         0.0836 
    112 H112      -78.0202   26.4422  -74.3917 H         1 UNK         0.3022 
    113 H113      -75.8852   23.5800  -73.9960 H         1 UNK         0.0747 
    114 H114      -77.2110   23.7272  -71.8614 H         1 UNK         0.0793 
    115 H115      -75.8926   24.8885  -71.9170 H         1 UNK         0.0793 
    116 H116      -77.5395   25.4262  -72.1964 H         1 UNK         0.0793 
    117 H117      -78.7305   24.4681  -74.2783 H         1 UNK         0.3047 
    118 H118      -79.1891   22.3929  -77.0786 H         1 UNK         0.0822 
    119 H119      -81.0957   21.3468  -75.8767 H         1 UNK         0.0807 
    120 H120      -80.4180   21.8335  -74.3214 H         1 UNK         0.0807 
    121 H121      -79.5832   20.6522  -75.3205 H         1 UNK         0.0807 
    122 H122      -81.0964   23.8666  -75.5980 H         1 UNK         0.2946 
    123 H123      -80.3017   27.1332  -76.6230 H         1 UNK         0.1144 
    124 H124      -82.5624   27.1023  -77.6235 H         1 UNK         0.0793 
    125 H125      -82.5790   25.3381  -77.6174 H         1 UNK         0.0793 
    126 H126      -81.4508   26.2098  -78.6468 H         1 UNK         0.0793 
    127 H127      -82.5711   26.3551  -75.2588 H         1 UNK         0.2896 
@<TRIPOS>BOND
     1    1    2 1    
     2    1   67 1    
     3    1   68 1    
     4    1   69 1    
     5    2    3 2    
     6    2    4 am   BACKBONE|DICT|INTERRES
     7    4    5 1    
     8    4   70 1    
     9    5    6 1    
    10    5   65 1    
    11    5   71 1    
    12    6    7 1    
    13    6   72 1    
    14    6   73 1    
    15    7    8 1    
    16    8    9 1    
    17    8   74 1    
    18    8   75 1    
    19    9   10 ar   
    20    9   14 ar   
    21   10   11 ar   
    22   10   76 1    
    23   11   12 ar   
    24   11   48 1    
    25   12   13 ar   
    26   12   77 1    
    27   13   14 ar   
    28   13   15 1    
    29   14   78 1    
    30   15   16 1    
    31   15   79 1    
    32   15   80 1    
    33   16   17 1    
    34   17   18 1    
    35   17   81 1    
    36   17   82 1    
    37   18   19 1    
    38   18   22 1    
    39   18   83 1    
    40   19   20 am   BACKBONE|DICT|INTERRES
    41   19   21 2    
    42   20   84 1    
    43   20   85 1    
    44   22   23 am   BACKBONE|DICT|INTERRES
    45   22   86 1    
    46   23   24 2    
    47   23   25 1    
    48   25   26 1    
    49   25   27 1    
    50   25   87 1    
    51   26   88 1    
    52   26   89 1    
    53   26   90 1    
    54   27   28 am   BACKBONE|DICT|INTERRES
    55   27   91 1    
    56   28   29 2    
    57   28   30 1    
    58   30   31 1    
    59   30   32 1    
    60   30   92 1    
    61   31   93 1    
    62   31   94 1    
    63   31   95 1    
    64   32   33 am   BACKBONE|DICT|INTERRES
    65   32   96 1    
    66   33   34 2    
    67   33   35 1    
    68   35   36 1    
    69   35   37 1    
    70   35   97 1    
    71   36   98 1    
    72   36   99 1    
    73   36  100 1    
    74   37   38 am   BACKBONE|DICT|INTERRES
    75   37  101 1    
    76   38   39 2    
    77   38   40 1    
    78   40   41 1    
    79   40   42 1    
    80   40  102 1    
    81   41  103 1    
    82   41  104 1    
    83   41  105 1    
    84   42   43 am   BACKBONE|DICT|INTERRES
    85   42  106 1    
    86   43   44 2    
    87   43   45 1    
    88   45   46 1    
    89   45   49 1    
    90   45  107 1    
    91   46   47 1    
    92   46  108 1    
    93   46  109 1    
    94   47   48 1    
    95   48  110 1    
    96   48  111 1    
    97   49   50 am   BACKBONE|DICT|INTERRES
    98   49  112 1    
    99   50   51 2    
   100   50   52 1    
   101   52   53 1    
   102   52   54 1    
   103   52  113 1    
   104   53  114 1    
   105   53  115 1    
   106   53  116 1    
   107   54   55 am   BACKBONE|DICT|INTERRES
   108   54  117 1    
   109   55   56 2    
   110   55   57 1    
   111   57   58 1    
   112   57   59 1    
   113   57  118 1    
   114   58  119 1    
   115   58  120 1    
   116   58  121 1    
   117   59   60 am   BACKBONE|DICT|INTERRES
   118   59  122 1    
   119   60   61 2    
   120   60   62 1    
   121   62   63 1    
   122   62   64 1    
   123   62  123 1    
   124   63  124 1    
   125   63  125 1    
   126   63  126 1    
   127   64   65 am   BACKBONE|DICT|INTERRES
   128   64  127 1    
   129   65   66 2    
@<TRIPOS>SUBSTRUCTURE
     1 UNK         1 GROUP             0       ****    0 ROOT    
