@<TRIPOS>MOLECULE
3R135
127   129    1
SMALL
USER_CHARGES


@<TRIPOS>ATOM
      1 CA        -85.6030   27.7376  -73.8880 C.3       0 UNK        -0.1998 
      2 C         -84.4494   28.7295  -73.8882 C.2       0 UNK         0.4909 
      3 O         -84.2477   29.4348  -74.8774 O.2       0 UNK        -0.5240 
      4 N         -83.6996   28.7976  -72.7822 N.am      1 UNK        -0.4739 
      5 CA        -82.4966   29.6213  -72.6314 C.3       1 UNK         0.0864 
      6 C6        -82.1362   29.8549  -71.1384 C.3       11 UNK        -0.0881 
      7 S7        -82.1134   28.3420  -70.1077 S.3       11 UNK        -0.2682 
      8 C8        -80.4635   28.4081  -69.3374 C.3       11 UNK         0.0289 
      9 C9        -79.3551   27.9674  -70.2841 C.ar      11 UNK        -0.0687 
     10 C10       -79.2548   26.6265  -70.6672 C.ar      11 UNK        -0.0823 
     11 C11       -78.2231   26.2034  -71.5095 C.ar      11 UNK        -0.0830 
     12 C12       -77.2902   27.1352  -71.9735 C.ar      11 UNK        -0.1021 
     13 C13       -77.3603   28.4782  -71.5787 C.ar      11 UNK        -0.0753 
     14 C14       -78.4052   28.8860  -70.7421 C.ar      11 UNK        -0.0933 
     15 C15       -76.3508   29.5165  -72.0681 C.3       11 UNK         0.0166 
     16 S16       -74.6691   28.8640  -72.3301 S.3       11 UNK        -0.2615 
     17 C17       -73.9017   30.2574  -73.2226 C.3       11 UNK        -0.0865 
     18 CA        -74.2191   30.2729  -74.7433 C.3       10 UNK         0.0862 
     19 C         -73.5493   31.5035  -75.4245 C.2       10 UNK         0.5551 
     20 N         -72.5722   31.3336  -76.3087 N.am      10 UNK        -0.7319 
     21 O         -73.9284   32.6370  -75.1415 O.2       10 UNK        -0.5018 
     22 N         -73.9221   28.9841  -75.3861 N.am      10 UNK        -0.4509 
     23 C         -74.3582   28.6066  -76.5956 C.2       10 UNK         0.4899 
     24 O         -75.1834   29.2452  -77.2507 O.2       10 UNK        -0.4839 
     25 CA        -73.7585   27.3072  -77.1764 C.3       9 UNK         0.0222 
     26 CB        -73.7004   27.3183  -78.7175 C.3       9 UNK        -0.1966 
     27 N         -72.4536   26.9372  -76.6099 N.am      9 UNK        -0.4218 
     28 C         -71.3238   27.6654  -76.6081 C.2       9 UNK         0.5020 
     29 O         -71.2340   28.7787  -77.1284 O.2       9 UNK        -0.5274 
     30 CA        -70.1061   27.1070  -75.8441 C.3       8 UNK         0.0270 
     31 CB        -69.7500   28.0290  -74.6640 C.3       8 UNK        -0.1976 
     32 N         -70.3125   25.7507  -75.3293 N.am      8 UNK        -0.4313 
     33 C         -70.1663   24.6261  -76.0421 C.2       8 UNK         0.5041 
     34 O         -69.7603   24.5984  -77.2042 O.2       8 UNK        -0.5577 
     35 CA        -70.5717   23.3111  -75.3483 C.3       7 UNK         0.0284 
     36 CB        -69.3504   22.6559  -74.6831 C.3       7 UNK        -0.1958 
     37 N         -71.6474   23.4601  -74.3564 N.am      7 UNK        -0.4454 
     38 C         -72.8872   23.8844  -74.6358 C.2       7 UNK         0.5089 
     39 O         -73.2453   24.2580  -75.7545 O.2       7 UNK        -0.5125 
     40 CA        -73.8712   23.9720  -73.4634 C.3       6 UNK         0.0408 
     41 CB        -73.8652   25.3921  -72.8796 C.3       6 UNK        -0.1791 
     42 N         -75.2121   23.6704  -73.9555 N.am      6 UNK        -0.4762 
     43 C         -75.8481   22.5014  -73.7984 C.2       6 UNK         0.5007 
     44 O         -75.4401   21.5902  -73.0770 O.2       6 UNK        -0.5032 
     45 CA        -77.1504   22.3019  -74.6044 C.3       5 UNK         0.0783 
     46 C46       -78.4088   22.6348  -73.7574 C.3       11 UNK        -0.0857 
     47 S47       -78.7490   24.4237  -73.5611 S.3       11 UNK        -0.2512 
     48 C48       -78.0951   24.7365  -71.8941 C.3       11 UNK         0.0225 
     49 N         -77.1311   23.0441  -75.8669 N.am      5 UNK        -0.4615 
     50 C         -76.3115   22.8237  -76.9024 C.2       4 UNK         0.5053 
     51 O         -75.5999   21.8224  -76.9903 O.2       4 UNK        -0.5105 
     52 CA        -76.2587   23.8956  -78.0183 C.3       4 UNK         0.0263 
     53 CB        -76.2382   23.2536  -79.4171 C.3       4 UNK        -0.1981 
     54 N         -77.3307   24.9023  -77.9788 N.am      4 UNK        -0.4224 
     55 C         -77.5033   25.8392  -77.0370 C.2       3 UNK         0.4895 
     56 O         -76.7641   25.9643  -76.0559 O.2       3 UNK        -0.5091 
     57 CA        -78.7431   26.7318  -77.1790 C.3       3 UNK         0.0250 
     58 CB        -80.0425   25.8984  -77.1294 C.3       3 UNK        -0.1996 
     59 N         -78.7171   27.6911  -76.0826 N.am      3 UNK        -0.4254 
     60 C         -79.4790   28.7775  -75.9414 C.2       2 UNK         0.5004 
     61 O         -80.3210   29.1531  -76.7607 O.2       2 UNK        -0.5226 
     62 CA        -79.2264   29.6053  -74.6714 C.3       2 UNK         0.0269 
     63 CB        -78.4824   30.9062  -75.0185 C.3       2 UNK        -0.1926 
     64 N         -80.4506   29.9316  -73.9374 N.am      2 UNK        -0.4687 
     65 C         -81.3117   29.0375  -73.4290 C.2       1 UNK         0.5165 
     66 O         -81.1870   27.8154  -73.5405 O.2       1 UNK        -0.5079 
     67 H67       -86.5465   28.2584  -74.0495 H         1 UNK         0.0900 
     68 H68       -85.6726   27.1940  -72.9458 H         1 UNK         0.0900 
     69 H69       -85.4724   27.0110  -74.6895 H         1 UNK         0.0900 
     70 H70       -83.8822   28.1723  -72.0097 H         1 UNK         0.2959 
     71 H71       -82.7226   30.5986  -73.0650 H         1 UNK         0.1079 
     72 H72       -81.1840   30.3816  -71.0501 H         1 UNK         0.0837 
     73 H73       -82.8749   30.5269  -70.6989 H         1 UNK         0.0837 
     74 H74       -80.4620   27.7499  -68.4674 H         1 UNK         0.0685 
     75 H75       -80.2797   29.4131  -68.9543 H         1 UNK         0.0685 
     76 H76       -79.9828   25.9131  -70.3059 H         1 UNK         0.1434 
     77 H77       -76.5068   26.8047  -72.6405 H         1 UNK         0.1329 
     78 H78       -78.4761   29.9222  -70.4409 H         1 UNK         0.1335 
     79 H79       -76.2875   30.3429  -71.3584 H         1 UNK         0.0680 
     80 H80       -76.7134   29.9377  -73.0028 H         1 UNK         0.0680 
     81 H81       -72.8231   30.1985  -73.0649 H         1 UNK         0.1032 
     82 H82       -74.2206   31.1903  -72.7531 H         1 UNK         0.1032 
     83 H83       -75.2929   30.4310  -74.8473 H         1 UNK         0.0461 
     84 H84       -72.1544   32.1427  -76.7392 H         1 UNK         0.3453 
     85 H85       -72.2398   30.4067  -76.5546 H         1 UNK         0.3453 
     86 H86       -73.2590   28.3944  -74.9086 H         1 UNK         0.2984 
     87 H87       -74.4337   26.5064  -76.8829 H         1 UNK         0.0554 
     88 H88       -73.3010   26.3812  -79.1051 H         1 UNK         0.0847 
     89 H89       -73.0773   28.1311  -79.0917 H         1 UNK         0.0847 
     90 H90       -74.6953   27.4448  -79.1463 H         1 UNK         0.0847 
     91 H91       -72.4355   26.0148  -76.1852 H         1 UNK         0.3141 
     92 H92       -69.2634   27.0997  -76.5387 H         1 UNK         0.0743 
     93 H93       -69.5407   29.0433  -75.0073 H         1 UNK         0.0784 
     94 H94       -70.5620   28.0929  -73.9385 H         1 UNK         0.0784 
     95 H95       -68.8592   27.6788  -74.1420 H         1 UNK         0.0784 
     96 H96       -70.6303   25.6682  -74.3745 H         1 UNK         0.3213 
     97 H97       -70.9374   22.6381  -76.1271 H         1 UNK         0.0855 
     98 H98       -68.9543   23.2672  -73.8712 H         1 UNK         0.0814 
     99 H99       -68.5445   22.5114  -75.4043 H         1 UNK         0.0814 
    100 H100      -69.5969   21.6746  -74.2772 H         1 UNK         0.0814 
    101 H101      -71.4312   23.1833  -73.4088 H         1 UNK         0.3105 
    102 H102      -73.5734   23.2666  -72.6849 H         1 UNK         0.0547 
    103 H103      -74.1664   26.1331  -73.6215 H         1 UNK         0.0837 
    104 H104      -74.5450   25.4729  -72.0315 H         1 UNK         0.0837 
    105 H105      -72.8733   25.6704  -72.5219 H         1 UNK         0.0837 
    106 H106      -75.5965   24.3341  -74.6176 H         1 UNK         0.3020 
    107 H107      -77.1906   21.2394  -74.8555 H         1 UNK         0.1245 
    108 H108      -78.3618   22.1539  -72.7782 H         1 UNK         0.0781 
    109 H109      -79.2829   22.2009  -74.2452 H         1 UNK         0.0781 
    110 H110      -77.0464   24.4411  -71.8477 H         1 UNK         0.0836 
    111 H111      -78.6234   24.1073  -71.1761 H         1 UNK         0.0836 
    112 H112      -77.6450   23.9144  -75.8555 H         1 UNK         0.3022 
    113 H113      -75.3121   24.4224  -77.8817 H         1 UNK         0.0747 
    114 H114      -76.1275   24.0060  -80.1983 H         1 UNK         0.0793 
    115 H115      -75.4013   22.5618  -79.5224 H         1 UNK         0.0793 
    116 H116      -77.1522   22.6925  -79.6153 H         1 UNK         0.0793 
    117 H117      -78.0039   24.8536  -78.7302 H         1 UNK         0.3047 
    118 H118      -78.6762   27.2718  -78.1255 H         1 UNK         0.0822 
    119 H119      -80.0877   25.1722  -77.9412 H         1 UNK         0.0807 
    120 H120      -80.9267   26.5286  -77.2235 H         1 UNK         0.0807 
    121 H121      -80.1300   25.3485  -76.1914 H         1 UNK         0.0807 
    122 H122      -78.0134   27.4668  -75.3878 H         1 UNK         0.2946 
    123 H123      -78.6065   29.0106  -74.0000 H         1 UNK         0.1144 
    124 H124      -77.5575   30.6941  -75.5564 H         1 UNK         0.0793 
    125 H125      -78.2188   31.4706  -74.1241 H         1 UNK         0.0793 
    126 H126      -79.0845   31.5535  -75.6574 H         1 UNK         0.0793 
    127 H127      -80.6471   30.9149  -73.8207 H         1 UNK         0.2896 
@<TRIPOS>BOND
     1    1    2 1    
     2    1   67 1    
     3    1   68 1    
     4    1   69 1    
     5    2    3 2    
     6    2    4 am   BACKBONE|DICT|INTERRES
     7    4    5 1    
     8    4   70 1    
     9    5    6 1    
    10    5   65 1    
    11    5   71 1    
    12    6    7 1    
    13    6   72 1    
    14    6   73 1    
    15    7    8 1    
    16    8    9 1    
    17    8   74 1    
    18    8   75 1    
    19    9   10 ar   
    20    9   14 ar   
    21   10   11 ar   
    22   10   76 1    
    23   11   12 ar   
    24   11   48 1    
    25   12   13 ar   
    26   12   77 1    
    27   13   14 ar   
    28   13   15 1    
    29   14   78 1    
    30   15   16 1    
    31   15   79 1    
    32   15   80 1    
    33   16   17 1    
    34   17   18 1    
    35   17   81 1    
    36   17   82 1    
    37   18   19 1    
    38   18   22 1    
    39   18   83 1    
    40   19   20 am   BACKBONE|DICT|INTERRES
    41   19   21 2    
    42   20   84 1    
    43   20   85 1    
    44   22   23 am   BACKBONE|DICT|INTERRES
    45   22   86 1    
    46   23   24 2    
    47   23   25 1    
    48   25   26 1    
    49   25   27 1    
    50   25   87 1    
    51   26   88 1    
    52   26   89 1    
    53   26   90 1    
    54   27   28 am   BACKBONE|DICT|INTERRES
    55   27   91 1    
    56   28   29 2    
    57   28   30 1    
    58   30   31 1    
    59   30   32 1    
    60   30   92 1    
    61   31   93 1    
    62   31   94 1    
    63   31   95 1    
    64   32   33 am   BACKBONE|DICT|INTERRES
    65   32   96 1    
    66   33   34 2    
    67   33   35 1    
    68   35   36 1    
    69   35   37 1    
    70   35   97 1    
    71   36   98 1    
    72   36   99 1    
    73   36  100 1    
    74   37   38 am   BACKBONE|DICT|INTERRES
    75   37  101 1    
    76   38   39 2    
    77   38   40 1    
    78   40   41 1    
    79   40   42 1    
    80   40  102 1    
    81   41  103 1    
    82   41  104 1    
    83   41  105 1    
    84   42   43 am   BACKBONE|DICT|INTERRES
    85   42  106 1    
    86   43   44 2    
    87   43   45 1    
    88   45   46 1    
    89   45   49 1    
    90   45  107 1    
    91   46   47 1    
    92   46  108 1    
    93   46  109 1    
    94   47   48 1    
    95   48  110 1    
    96   48  111 1    
    97   49   50 am   BACKBONE|DICT|INTERRES
    98   49  112 1    
    99   50   51 2    
   100   50   52 1    
   101   52   53 1    
   102   52   54 1    
   103   52  113 1    
   104   53  114 1    
   105   53  115 1    
   106   53  116 1    
   107   54   55 am   BACKBONE|DICT|INTERRES
   108   54  117 1    
   109   55   56 2    
   110   55   57 1    
   111   57   58 1    
   112   57   59 1    
   113   57  118 1    
   114   58  119 1    
   115   58  120 1    
   116   58  121 1    
   117   59   60 am   BACKBONE|DICT|INTERRES
   118   59  122 1    
   119   60   61 2    
   120   60   62 1    
   121   62   63 1    
   122   62   64 1    
   123   62  123 1    
   124   63  124 1    
   125   63  125 1    
   126   63  126 1    
   127   64   65 am   BACKBONE|DICT|INTERRES
   128   64  127 1    
   129   65   66 2    
@<TRIPOS>SUBSTRUCTURE
     1 UNK         1 GROUP             0       ****    0 ROOT    
