@<TRIPOS>MOLECULE
3R135
127   129    1
SMALL
USER_CHARGES


@<TRIPOS>ATOM
      1 CA        -83.8344   32.1259  -73.6734 C.3       0 UNK        -0.1998 
      2 C         -82.6079   31.3599  -74.1468 C.2       0 UNK         0.4909 
      3 O         -82.3898   31.2381  -75.3529 O.2       0 UNK        -0.5240 
      4 N         -81.8024   30.8515  -73.2069 N.am      1 UNK        -0.4739 
      5 CA        -80.6243   30.0212  -73.4742 C.3       1 UNK         0.0864 
      6 C6        -79.6495   30.0207  -72.2651 C.3       11 UNK        -0.0881 
      7 S7        -80.3456   29.2941  -70.7329 S.3       11 UNK        -0.2682 
      8 C8        -78.9004   29.2480  -69.6254 C.3       11 UNK         0.0289 
      9 C9        -77.7968   28.3363  -70.1442 C.ar      11 UNK        -0.0687 
     10 C10       -77.8613   26.9514  -69.9554 C.ar      11 UNK        -0.0823 
     11 C11       -76.8405   26.1149  -70.4252 C.ar      11 UNK        -0.0830 
     12 C12       -75.7525   26.6870  -71.0982 C.ar      11 UNK        -0.1021 
     13 C13       -75.6833   28.0677  -71.3013 C.ar      11 UNK        -0.0753 
     14 C14       -76.6985   28.8872  -70.8059 C.ar      11 UNK        -0.0933 
     15 C15       -74.5167   28.6802  -72.0603 C.3       11 UNK         0.0166 
     16 S16       -75.0664   29.5325  -73.5707 S.3       11 UNK        -0.2615 
     17 C17       -75.8691   28.1721  -74.4921 C.3       11 UNK        -0.0865 
     18 CA        -75.9412   28.4329  -76.0203 C.3       10 UNK         0.0862 
     19 C         -77.0140   29.4959  -76.3920 C.2       10 UNK         0.5551 
     20 N         -76.7026   30.5049  -77.1954 N.am      10 UNK        -0.7319 
     21 O         -78.1530   29.3967  -75.9439 O.2       10 UNK        -0.5018 
     22 N         -74.6002   28.6882  -76.5604 N.am      10 UNK        -0.4509 
     23 C         -74.1399   28.3473  -77.7671 C.2       10 UNK         0.4899 
     24 O         -74.8319   27.8212  -78.6375 O.2       10 UNK        -0.4839 
     25 CA        -72.6360   28.5654  -78.0309 C.3       9 UNK         0.0222 
     26 CB        -72.3896   29.8161  -78.8976 C.3       9 UNK        -0.1966 
     27 N         -71.8057   28.5537  -76.8113 N.am      9 UNK        -0.4218 
     28 C         -71.7263   29.4779  -75.8397 C.2       9 UNK         0.5020 
     29 O         -72.3257   30.5523  -75.8672 O.2       9 UNK        -0.5274 
     30 CA        -70.9439   29.0685  -74.5836 C.3       8 UNK         0.0270 
     31 CB        -70.9873   30.1236  -73.4608 C.3       8 UNK        -0.1976 
     32 N         -71.5019   27.8078  -74.1009 N.am      8 UNK        -0.4313 
     33 C         -70.8033   26.7829  -73.6044 C.2       8 UNK         0.5041 
     34 O         -69.5968   26.8283  -73.3604 O.2       8 UNK        -0.5577 
     35 CA        -71.5719   25.4671  -73.3681 C.3       7 UNK         0.0284 
     36 CB        -71.9301   25.3040  -71.8816 C.3       7 UNK        -0.1958 
     37 N         -72.7810   25.2850  -74.1883 N.am      7 UNK        -0.4454 
     38 C         -72.8088   25.2426  -75.5296 C.2       7 UNK         0.5089 
     39 O         -71.8368   25.5265  -76.2317 O.2       7 UNK        -0.5125 
     40 CA        -74.1292   24.8448  -76.2243 C.3       6 UNK         0.0408 
     41 CB        -73.8626   23.8542  -77.3762 C.3       6 UNK        -0.1791 
     42 N         -75.2029   24.3414  -75.3542 N.am      6 UNK        -0.4762 
     43 C         -75.1900   23.2321  -74.5966 C.2       6 UNK         0.5007 
     44 O         -74.1973   22.5267  -74.4175 O.2       6 UNK        -0.5032 
     45 CA        -76.5387   22.8261  -73.9765 C.3       5 UNK         0.0783 
     46 C46       -76.9688   23.7698  -72.8265 C.3       11 UNK        -0.0857 
     47 S47       -75.9993   23.5396  -71.3042 S.3       11 UNK        -0.2512 
     48 C48       -76.9276   24.6111  -70.1479 C.3       11 UNK         0.0225 
     49 N         -77.5541   22.7683  -75.0310 N.am      5 UNK        -0.4615 
     50 C         -77.7168   21.7400  -75.8770 C.2       4 UNK         0.5053 
     51 O         -77.0834   20.6874  -75.7973 O.2       4 UNK        -0.5105 
     52 CA        -78.7666   21.8928  -76.9954 C.3       4 UNK         0.0263 
     53 CB        -80.0798   21.2028  -76.5917 C.3       4 UNK        -0.1981 
     54 N         -79.0454   23.2901  -77.3330 N.am      4 UNK        -0.4224 
     55 C         -78.2404   24.0786  -78.0608 C.2       3 UNK         0.4895 
     56 O         -77.2393   23.6728  -78.6484 O.2       3 UNK        -0.5091 
     57 CA        -78.5968   25.5782  -78.1294 C.3       3 UNK         0.0250 
     58 CB        -79.2809   25.9108  -79.4648 C.3       3 UNK        -0.1996 
     59 N         -79.4460   26.0375  -77.0220 N.am      3 UNK        -0.4254 
     60 C         -79.0805   26.0289  -75.7339 C.2       2 UNK         0.5004 
     61 O         -77.9576   25.6936  -75.3478 O.2       2 UNK        -0.5226 
     62 CA        -80.1544   26.4221  -74.7168 C.3       2 UNK         0.0269 
     63 CB        -80.0069   25.6384  -73.3957 C.3       2 UNK        -0.1926 
     64 N         -80.0634   27.8535  -74.4619 N.am      2 UNK        -0.4687 
     65 C         -81.0194   28.5837  -73.8797 C.2       1 UNK         0.5165 
     66 O         -82.1427   28.1444  -73.6123 O.2       1 UNK        -0.5079 
     67 H67       -83.8077   33.1479  -74.0506 H         1 UNK         0.0900 
     68 H68       -83.8944   32.1673  -72.5859 H         1 UNK         0.0900 
     69 H69       -84.7408   31.6485  -74.0449 H         1 UNK         0.0900 
     70 H70       -82.0481   30.9438  -72.2313 H         1 UNK         0.2959 
     71 H71       -80.0973   30.4598  -74.3252 H         1 UNK         0.1079 
     72 H72       -78.7410   29.4809  -72.5354 H         1 UNK         0.0837 
     73 H73       -79.3302   31.0412  -72.0480 H         1 UNK         0.0837 
     74 H74       -79.2227   28.9037  -68.6417 H         1 UNK         0.0685 
     75 H75       -78.5261   30.2631  -69.4835 H         1 UNK         0.0685 
     76 H76       -78.7082   26.5272  -69.4332 H         1 UNK         0.1434 
     77 H77       -74.9532   26.0607  -71.4642 H         1 UNK         0.1329 
     78 H78       -76.6419   29.9564  -70.9587 H         1 UNK         0.1335 
     79 H79       -74.0034   29.3947  -71.4156 H         1 UNK         0.0680 
     80 H80       -73.7820   27.9229  -72.3292 H         1 UNK         0.0680 
     81 H81       -75.3144   27.2511  -74.3120 H         1 UNK         0.1032 
     82 H82       -76.8613   27.9933  -74.0728 H         1 UNK         0.1032 
     83 H83       -76.3011   27.5101  -76.4770 H         1 UNK         0.0461 
     84 H84       -77.4073   31.1857  -77.4293 H         1 UNK         0.3453 
     85 H85       -75.7690   30.5928  -77.5622 H         1 UNK         0.3453 
     86 H86       -73.9911   29.2349  -75.9634 H         1 UNK         0.2984 
     87 H87       -72.3033   27.7011  -78.6080 H         1 UNK         0.0554 
     88 H88       -71.3288   29.9507  -79.1084 H         1 UNK         0.0847 
     89 H89       -72.7564   30.7263  -78.4228 H         1 UNK         0.0847 
     90 H90       -72.9015   29.7277  -79.8567 H         1 UNK         0.0847 
     91 H91       -71.3344   27.6706  -76.6440 H         1 UNK         0.3141 
     92 H92       -69.9050   28.9260  -74.8891 H         1 UNK         0.0743 
     93 H93       -70.5700   31.0723  -73.8004 H         1 UNK         0.0784 
     94 H94       -72.0074   30.3153  -73.1263 H         1 UNK         0.0784 
     95 H95       -70.4061   29.8042  -72.5957 H         1 UNK         0.0784 
     96 H96       -72.4848   27.6628  -74.2794 H         1 UNK         0.3213 
     97 H97       -70.8902   24.6570  -73.6364 H         1 UNK         0.0855 
     98 H98       -72.5812   26.1013  -71.5268 H         1 UNK         0.0814 
     99 H99       -71.0314   25.3263  -71.2635 H         1 UNK         0.0814 
    100 H100      -72.4264   24.3519  -71.6912 H         1 UNK         0.0814 
    101 H101      -73.6191   25.0011  -73.7030 H         1 UNK         0.3105 
    102 H102      -74.5257   25.7554  -76.6678 H         1 UNK         0.0547 
    103 H103      -73.3871   22.9394  -77.0212 H         1 UNK         0.0837 
    104 H104      -74.7831   23.5743  -77.8845 H         1 UNK         0.0837 
    105 H105      -73.2043   24.2916  -78.1278 H         1 UNK         0.0837 
    106 H106      -76.0825   24.8475  -75.4138 H         1 UNK         0.3020 
    107 H107      -76.4215   21.8214  -73.5623 H         1 UNK         0.1245 
    108 H108      -78.0109   23.5747  -72.5710 H         1 UNK         0.0781 
    109 H109      -76.9185   24.8181  -73.1242 H         1 UNK         0.0781 
    110 H110      -76.5508   24.4307  -69.1405 H         1 UNK         0.0836 
    111 H111      -77.9713   24.2927  -70.1453 H         1 UNK         0.0836 
    112 H112      -78.0574   23.6292  -75.2019 H         1 UNK         0.3022 
    113 H113      -78.3764   21.3915  -77.8840 H         1 UNK         0.0747 
    114 H114      -80.8139   21.2443  -77.3967 H         1 UNK         0.0793 
    115 H115      -79.9122   20.1492  -76.3633 H         1 UNK         0.0793 
    116 H116      -80.5234   21.6609  -75.7067 H         1 UNK         0.0793 
    117 H117      -79.8729   23.6994  -76.9257 H         1 UNK         0.3047 
    118 H118      -77.6568   26.1327  -78.0802 H         1 UNK         0.0822 
    119 H119      -78.6585   25.6074  -80.3079 H         1 UNK         0.0807 
    120 H120      -79.4562   26.9823  -79.5646 H         1 UNK         0.0807 
    121 H121      -80.2395   25.4006  -79.5670 H         1 UNK         0.0807 
    122 H122      -80.3745   26.3529  -77.2658 H         1 UNK         0.2946 
    123 H123      -81.1336   26.1936  -75.1440 H         1 UNK         0.1144 
    124 H124      -79.9852   24.5636  -73.5773 H         1 UNK         0.0793 
    125 H125      -80.8416   25.8310  -72.7217 H         1 UNK         0.0793 
    126 H126      -79.0914   25.9092  -72.8681 H         1 UNK         0.0793 
    127 H127      -79.2066   28.3087  -74.7688 H         1 UNK         0.2896 
@<TRIPOS>BOND
     1    1    2 1    
     2    1   67 1    
     3    1   68 1    
     4    1   69 1    
     5    2    3 2    
     6    2    4 am   BACKBONE|DICT|INTERRES
     7    4    5 1    
     8    4   70 1    
     9    5    6 1    
    10    5   65 1    
    11    5   71 1    
    12    6    7 1    
    13    6   72 1    
    14    6   73 1    
    15    7    8 1    
    16    8    9 1    
    17    8   74 1    
    18    8   75 1    
    19    9   10 ar   
    20    9   14 ar   
    21   10   11 ar   
    22   10   76 1    
    23   11   12 ar   
    24   11   48 1    
    25   12   13 ar   
    26   12   77 1    
    27   13   14 ar   
    28   13   15 1    
    29   14   78 1    
    30   15   16 1    
    31   15   79 1    
    32   15   80 1    
    33   16   17 1    
    34   17   18 1    
    35   17   81 1    
    36   17   82 1    
    37   18   19 1    
    38   18   22 1    
    39   18   83 1    
    40   19   20 am   BACKBONE|DICT|INTERRES
    41   19   21 2    
    42   20   84 1    
    43   20   85 1    
    44   22   23 am   BACKBONE|DICT|INTERRES
    45   22   86 1    
    46   23   24 2    
    47   23   25 1    
    48   25   26 1    
    49   25   27 1    
    50   25   87 1    
    51   26   88 1    
    52   26   89 1    
    53   26   90 1    
    54   27   28 am   BACKBONE|DICT|INTERRES
    55   27   91 1    
    56   28   29 2    
    57   28   30 1    
    58   30   31 1    
    59   30   32 1    
    60   30   92 1    
    61   31   93 1    
    62   31   94 1    
    63   31   95 1    
    64   32   33 am   BACKBONE|DICT|INTERRES
    65   32   96 1    
    66   33   34 2    
    67   33   35 1    
    68   35   36 1    
    69   35   37 1    
    70   35   97 1    
    71   36   98 1    
    72   36   99 1    
    73   36  100 1    
    74   37   38 am   BACKBONE|DICT|INTERRES
    75   37  101 1    
    76   38   39 2    
    77   38   40 1    
    78   40   41 1    
    79   40   42 1    
    80   40  102 1    
    81   41  103 1    
    82   41  104 1    
    83   41  105 1    
    84   42   43 am   BACKBONE|DICT|INTERRES
    85   42  106 1    
    86   43   44 2    
    87   43   45 1    
    88   45   46 1    
    89   45   49 1    
    90   45  107 1    
    91   46   47 1    
    92   46  108 1    
    93   46  109 1    
    94   47   48 1    
    95   48  110 1    
    96   48  111 1    
    97   49   50 am   BACKBONE|DICT|INTERRES
    98   49  112 1    
    99   50   51 2    
   100   50   52 1    
   101   52   53 1    
   102   52   54 1    
   103   52  113 1    
   104   53  114 1    
   105   53  115 1    
   106   53  116 1    
   107   54   55 am   BACKBONE|DICT|INTERRES
   108   54  117 1    
   109   55   56 2    
   110   55   57 1    
   111   57   58 1    
   112   57   59 1    
   113   57  118 1    
   114   58  119 1    
   115   58  120 1    
   116   58  121 1    
   117   59   60 am   BACKBONE|DICT|INTERRES
   118   59  122 1    
   119   60   61 2    
   120   60   62 1    
   121   62   63 1    
   122   62   64 1    
   123   62  123 1    
   124   63  124 1    
   125   63  125 1    
   126   63  126 1    
   127   64   65 am   BACKBONE|DICT|INTERRES
   128   64  127 1    
   129   65   66 2    
@<TRIPOS>SUBSTRUCTURE
     1 UNK         1 GROUP             0       ****    0 ROOT    
