@<TRIPOS>MOLECULE
3R135
127   129    1
SMALL
USER_CHARGES


@<TRIPOS>ATOM
      1 CA        -82.3890   24.7078  -71.8445 C.3       0 UNK        -0.1998 
      2 C         -82.5659   25.8439  -72.8393 C.2       0 UNK         0.4909 
      3 O         -83.5346   25.8503  -73.6006 O.2       0 UNK        -0.5240 
      4 N         -81.6344   26.8052  -72.8479 N.am      1 UNK        -0.4739 
      5 CA        -81.6281   27.9854  -73.7245 C.3       1 UNK         0.0864 
      6 C6        -80.8816   29.1846  -73.0795 C.3       11 UNK        -0.0881 
      7 S7        -81.5806   29.6274  -71.4477 S.3       11 UNK        -0.2682 
      8 C8        -80.1702   30.4233  -70.5978 C.3       11 UNK         0.0289 
      9 C9        -78.9087   29.5660  -70.4954 C.ar      11 UNK        -0.0687 
     10 C10       -78.9727   28.1776  -70.3201 C.ar      11 UNK        -0.0823 
     11 C11       -77.8055   27.4074  -70.3151 C.ar      11 UNK        -0.0830 
     12 C12       -76.5635   28.0395  -70.4075 C.ar      11 UNK        -0.1021 
     13 C13       -76.4825   29.4270  -70.5386 C.ar      11 UNK        -0.0753 
     14 C14       -77.6565   30.1835  -70.5910 C.ar      11 UNK        -0.0933 
     15 C15       -75.1218   30.0961  -70.6384 C.3       11 UNK         0.0166 
     16 S16       -74.4330   29.9220  -72.3109 S.3       11 UNK        -0.2615 
     17 C17       -72.7307   30.5166  -72.0371 C.3       11 UNK        -0.0865 
     18 CA        -72.1228   31.1929  -73.2920 C.3       10 UNK         0.0862 
     19 C         -70.7176   31.7669  -72.9562 C.2       10 UNK         0.5551 
     20 N         -70.6290   33.0556  -72.6568 N.am      10 UNK        -0.7319 
     21 O         -69.7233   31.0452  -72.9141 O.2       10 UNK        -0.5018 
     22 N         -72.1201   30.2713  -74.4390 N.am      10 UNK        -0.4509 
     23 C         -71.6820   30.5439  -75.6744 C.2       10 UNK         0.4899 
     24 O         -71.2648   31.6508  -76.0193 O.2       10 UNK        -0.4839 
     25 CA        -71.7623   29.4163  -76.7254 C.3       9 UNK         0.0222 
     26 CB        -70.5229   29.3907  -77.6450 C.3       9 UNK        -0.1966 
     27 N         -72.0431   28.0741  -76.1940 N.am      9 UNK        -0.4218 
     28 C         -71.2732   27.3257  -75.3859 C.2       9 UNK         0.5020 
     29 O         -70.2047   27.7075  -74.9084 O.2       9 UNK        -0.5274 
     30 CA        -71.7711   25.9075  -75.0393 C.3       8 UNK         0.0270 
     31 CB        -72.3863   25.8854  -73.6298 C.3       8 UNK        -0.1976 
     32 N         -72.7372   25.3650  -75.9998 N.am      8 UNK        -0.4313 
     33 C         -72.4592   25.0538  -77.2746 C.2       8 UNK         0.5041 
     34 O         -71.3273   25.0983  -77.7580 O.2       8 UNK        -0.5577 
     35 CA        -73.6433   24.6602  -78.1769 C.3       7 UNK         0.0284 
     36 CB        -73.8276   23.1352  -78.1867 C.3       7 UNK        -0.1958 
     37 N         -74.9083   25.3061  -77.8087 N.am      7 UNK        -0.4454 
     38 C         -75.1304   26.6291  -77.8124 C.2       7 UNK         0.5089 
     39 O         -74.2876   27.4658  -78.1350 O.2       7 UNK        -0.5125 
     40 CA        -76.5063   27.1014  -77.3190 C.3       6 UNK         0.0408 
     41 CB        -77.5644   26.9918  -78.4271 C.3       6 UNK        -0.1791 
     42 N         -76.9377   26.3618  -76.1319 N.am      6 UNK        -0.4762 
     43 C         -76.4001   26.5237  -74.9137 C.2       6 UNK         0.5007 
     44 O         -75.5234   27.3492  -74.6625 O.2       6 UNK        -0.5032 
     45 CA        -76.8950   25.5792  -73.8002 C.3       5 UNK         0.0783 
     46 C46       -78.1674   26.1515  -73.1431 C.3       11 UNK        -0.0857 
     47 S47       -78.7597   25.1764  -71.7133 S.3       11 UNK        -0.2512 
     48 C48       -77.8781   25.8876  -70.2783 C.3       11 UNK         0.0225 
     49 N         -77.1009   24.2190  -74.3024 N.am      5 UNK        -0.4615 
     50 C         -76.1156   23.4081  -74.7075 C.2       4 UNK         0.5053 
     51 O         -74.9234   23.7125  -74.6743 O.2       4 UNK        -0.5105 
     52 CA        -76.5308   22.0438  -75.2847 C.3       4 UNK         0.0263 
     53 CB        -76.6419   21.0004  -74.1620 C.3       4 UNK        -0.1981 
     54 N         -77.7842   22.0768  -76.0460 N.am      4 UNK        -0.4224 
     55 C         -78.0181   22.8408  -77.1229 C.2       3 UNK         0.4895 
     56 O         -77.1926   23.6231  -77.5950 O.2       3 UNK        -0.5091 
     57 CA        -79.4019   22.7365  -77.7902 C.3       3 UNK         0.0250 
     58 CB        -80.3072   21.6245  -77.2099 C.3       3 UNK        -0.1996 
     59 N         -80.1102   24.0231  -77.7951 N.am      3 UNK        -0.4254 
     60 C         -80.4604   24.7553  -76.7265 C.2       2 UNK         0.5004 
     61 O         -80.1523   24.4636  -75.5674 O.2       2 UNK        -0.5226 
     62 CA        -81.3160   26.0060  -77.0144 C.3       2 UNK         0.0269 
     63 CB        -82.5838   25.6486  -77.8137 C.3       2 UNK        -0.1926 
     64 N         -81.7360   26.6485  -75.7700 N.am      2 UNK        -0.4687 
     65 C         -81.0774   27.6147  -75.1215 C.2       1 UNK         0.5165 
     66 O         -80.0702   28.1681  -75.5660 O.2       1 UNK        -0.5079 
     67 H67       -83.3531   24.4093  -71.4337 H         1 UNK         0.0900 
     68 H68       -81.7463   24.9978  -71.0135 H         1 UNK         0.0900 
     69 H69       -81.9438   23.8446  -72.3389 H         1 UNK         0.0900 
     70 H70       -80.8365   26.7183  -72.2347 H         1 UNK         0.2959 
     71 H71       -82.6622   28.3021  -73.8794 H         1 UNK         0.1079 
     72 H72       -80.9437   30.0639  -73.7234 H         1 UNK         0.0837 
     73 H73       -79.8195   28.9580  -72.9780 H         1 UNK         0.0837 
     74 H74       -79.9490   31.3559  -71.1195 H         1 UNK         0.0685 
     75 H75       -80.4830   30.7001  -69.5904 H         1 UNK         0.0685 
     76 H76       -79.9318   27.6856  -70.2413 H         1 UNK         0.1434 
     77 H77       -75.6547   27.4530  -70.4037 H         1 UNK         0.1329 
     78 H78       -77.5937   31.2560  -70.7158 H         1 UNK         0.1335 
     79 H79       -74.4412   29.6446  -69.9148 H         1 UNK         0.0680 
     80 H80       -75.1921   31.1546  -70.3827 H         1 UNK         0.0680 
     81 H81       -72.7362   31.2198  -71.2016 H         1 UNK         0.1032 
     82 H82       -72.1166   29.6714  -71.7191 H         1 UNK         0.1032 
     83 H83       -72.7692   32.0276  -73.5707 H         1 UNK         0.0461 
     84 H84       -69.7292   33.4429  -72.4186 H         1 UNK         0.3453 
     85 H85       -71.4409   33.6532  -72.6789 H         1 UNK         0.3453 
     86 H86       -72.4610   29.3405  -74.2522 H         1 UNK         0.2984 
     87 H87       -72.6219   29.6625  -77.3501 H         1 UNK         0.0554 
     88 H88       -70.6069   28.6099  -78.4011 H         1 UNK         0.0847 
     89 H89       -69.6052   29.2166  -77.0825 H         1 UNK         0.0847 
     90 H90       -70.4042   30.3378  -78.1727 H         1 UNK         0.0847 
     91 H91       -72.9004   27.6590  -76.5432 H         1 UNK         0.3141 
     92 H92       -70.9000   25.2491  -75.0401 H         1 UNK         0.0743 
     93 H93       -72.6935   24.8787  -73.3455 H         1 UNK         0.0784 
     94 H94       -71.6660   26.2260  -72.8847 H         1 UNK         0.0784 
     95 H95       -73.2585   26.5353  -73.5575 H         1 UNK         0.0784 
     96 H96       -73.6801   25.2071  -75.6620 H         1 UNK         0.3213 
     97 H97       -73.4006   24.9813  -79.1920 H         1 UNK         0.0855 
     98 H98       -72.9278   22.6376  -78.5508 H         1 UNK         0.0814 
     99 H99       -74.6505   22.8353  -78.8360 H         1 UNK         0.0814 
    100 H100      -74.0284   22.7505  -77.1874 H         1 UNK         0.0814 
    101 H101      -75.6873   24.6913  -77.5784 H         1 UNK         0.3105 
    102 H102      -76.4178   28.1563  -77.0497 H         1 UNK         0.0547 
    103 H103      -77.2455   27.5275  -79.3222 H         1 UNK         0.0837 
    104 H104      -77.7523   25.9582  -78.7172 H         1 UNK         0.0837 
    105 H105      -78.5082   27.4332  -78.1093 H         1 UNK         0.0837 
    106 H106      -77.6105   25.6201  -76.2693 H         1 UNK         0.3020 
    107 H107      -76.1085   25.5423  -73.0426 H         1 UNK         0.1245 
    108 H108      -78.9748   26.1619  -73.8737 H         1 UNK         0.0781 
    109 H109      -78.0226   27.1951  -72.8639 H         1 UNK         0.0781 
    110 H110      -76.8774   25.4544  -70.2416 H         1 UNK         0.0836 
    111 H111      -78.3795   25.5731  -69.3621 H         1 UNK         0.0836 
    112 H112      -78.0612   23.9111  -74.3842 H         1 UNK         0.3022 
    113 H113      -75.7441   21.7223  -75.9687 H         1 UNK         0.0747 
    114 H114      -76.8409   20.0057  -74.5614 H         1 UNK         0.0793 
    115 H115      -75.7123   20.9389  -73.5940 H         1 UNK         0.0793 
    116 H116      -77.4379   21.2469  -73.4581 H         1 UNK         0.0793 
    117 H117      -78.5294   21.4798  -75.7182 H         1 UNK         0.3047 
    118 H118      -79.2079   22.4879  -78.8347 H         1 UNK         0.0822 
    119 H119      -80.5658   21.8017  -76.1651 H         1 UNK         0.0807 
    120 H120      -79.8286   20.6465  -77.2771 H         1 UNK         0.0807 
    121 H121      -81.2414   21.5555  -77.7676 H         1 UNK         0.0807 
    122 H122      -80.3738   24.3614  -78.7099 H         1 UNK         0.2946 
    123 H123      -80.7142   26.7027  -77.6009 H         1 UNK         0.1144 
    124 H124      -82.3417   25.2637  -78.8048 H         1 UNK         0.0793 
    125 H125      -83.1807   24.8908  -77.3041 H         1 UNK         0.0793 
    126 H126      -83.2161   26.5243  -77.9623 H         1 UNK         0.0793 
    127 H127      -82.5026   26.2071  -75.2713 H         1 UNK         0.2896 
@<TRIPOS>BOND
     1    1    2 1    
     2    1   67 1    
     3    1   68 1    
     4    1   69 1    
     5    2    3 2    
     6    2    4 am   BACKBONE|DICT|INTERRES
     7    4    5 1    
     8    4   70 1    
     9    5    6 1    
    10    5   65 1    
    11    5   71 1    
    12    6    7 1    
    13    6   72 1    
    14    6   73 1    
    15    7    8 1    
    16    8    9 1    
    17    8   74 1    
    18    8   75 1    
    19    9   10 ar   
    20    9   14 ar   
    21   10   11 ar   
    22   10   76 1    
    23   11   12 ar   
    24   11   48 1    
    25   12   13 ar   
    26   12   77 1    
    27   13   14 ar   
    28   13   15 1    
    29   14   78 1    
    30   15   16 1    
    31   15   79 1    
    32   15   80 1    
    33   16   17 1    
    34   17   18 1    
    35   17   81 1    
    36   17   82 1    
    37   18   19 1    
    38   18   22 1    
    39   18   83 1    
    40   19   20 am   BACKBONE|DICT|INTERRES
    41   19   21 2    
    42   20   84 1    
    43   20   85 1    
    44   22   23 am   BACKBONE|DICT|INTERRES
    45   22   86 1    
    46   23   24 2    
    47   23   25 1    
    48   25   26 1    
    49   25   27 1    
    50   25   87 1    
    51   26   88 1    
    52   26   89 1    
    53   26   90 1    
    54   27   28 am   BACKBONE|DICT|INTERRES
    55   27   91 1    
    56   28   29 2    
    57   28   30 1    
    58   30   31 1    
    59   30   32 1    
    60   30   92 1    
    61   31   93 1    
    62   31   94 1    
    63   31   95 1    
    64   32   33 am   BACKBONE|DICT|INTERRES
    65   32   96 1    
    66   33   34 2    
    67   33   35 1    
    68   35   36 1    
    69   35   37 1    
    70   35   97 1    
    71   36   98 1    
    72   36   99 1    
    73   36  100 1    
    74   37   38 am   BACKBONE|DICT|INTERRES
    75   37  101 1    
    76   38   39 2    
    77   38   40 1    
    78   40   41 1    
    79   40   42 1    
    80   40  102 1    
    81   41  103 1    
    82   41  104 1    
    83   41  105 1    
    84   42   43 am   BACKBONE|DICT|INTERRES
    85   42  106 1    
    86   43   44 2    
    87   43   45 1    
    88   45   46 1    
    89   45   49 1    
    90   45  107 1    
    91   46   47 1    
    92   46  108 1    
    93   46  109 1    
    94   47   48 1    
    95   48  110 1    
    96   48  111 1    
    97   49   50 am   BACKBONE|DICT|INTERRES
    98   49  112 1    
    99   50   51 2    
   100   50   52 1    
   101   52   53 1    
   102   52   54 1    
   103   52  113 1    
   104   53  114 1    
   105   53  115 1    
   106   53  116 1    
   107   54   55 am   BACKBONE|DICT|INTERRES
   108   54  117 1    
   109   55   56 2    
   110   55   57 1    
   111   57   58 1    
   112   57   59 1    
   113   57  118 1    
   114   58  119 1    
   115   58  120 1    
   116   58  121 1    
   117   59   60 am   BACKBONE|DICT|INTERRES
   118   59  122 1    
   119   60   61 2    
   120   60   62 1    
   121   62   63 1    
   122   62   64 1    
   123   62  123 1    
   124   63  124 1    
   125   63  125 1    
   126   63  126 1    
   127   64   65 am   BACKBONE|DICT|INTERRES
   128   64  127 1    
   129   65   66 2    
@<TRIPOS>SUBSTRUCTURE
     1 UNK         1 GROUP             0       ****    0 ROOT    
