@<TRIPOS>MOLECULE
3R135
127   129    1
SMALL
USER_CHARGES


@<TRIPOS>ATOM
      1 CA        -83.9183   22.4034  -72.3422 C.3       0 UNK        -0.1998 
      2 C         -82.8322   23.4642  -72.4281 C.2       0 UNK         0.4909 
      3 O         -81.7336   23.1702  -72.9004 O.2       0 UNK        -0.5240 
      4 N         -83.1395   24.6966  -71.9929 N.am      1 UNK        -0.4739 
      5 CA        -82.2432   25.8626  -71.9681 C.3       1 UNK         0.0864 
      6 C6        -81.1615   25.7343  -70.8599 C.3       11 UNK        -0.0881 
      7 S7        -80.3500   27.3188  -70.4420 S.3       11 UNK        -0.2682 
      8 C8        -78.6257   26.9794  -70.9330 C.3       11 UNK         0.0289 
      9 C9        -77.9541   28.1878  -71.5665 C.ar      11 UNK        -0.0687 
     10 C10       -78.4731   28.7256  -72.7454 C.ar      11 UNK        -0.0823 
     11 C11       -77.8310   29.7799  -73.3956 C.ar      11 UNK        -0.0830 
     12 C12       -76.6612   30.3134  -72.8466 C.ar      11 UNK        -0.1021 
     13 C13       -76.1389   29.7966  -71.6560 C.ar      11 UNK        -0.0753 
     14 C14       -76.7891   28.7334  -71.0194 C.ar      11 UNK        -0.0933 
     15 C15       -74.8680   30.3799  -71.0603 C.3       11 UNK         0.0166 
     16 S16       -73.4182   29.3909  -71.5304 S.3       11 UNK        -0.2615 
     17 C17       -72.0767   30.3176  -70.7119 C.3       11 UNK        -0.0865 
     18 CA        -71.1626   31.0725  -71.7130 C.3       10 UNK         0.0862 
     19 C         -70.1292   31.9450  -70.9392 C.2       10 UNK         0.5551 
     20 N         -68.8406   31.6263  -70.9582 N.am      10 UNK        -0.7319 
     21 O         -70.5093   32.9288  -70.3092 O.2       10 UNK        -0.5018 
     22 N         -70.5897   30.1587  -72.7185 N.am      10 UNK        -0.4509 
     23 C         -69.9470   30.5343  -73.8327 C.2       10 UNK         0.4899 
     24 O         -69.7671   31.7061  -74.1649 O.2       10 UNK        -0.4839 
     25 CA        -69.4090   29.4071  -74.7295 C.3       9 UNK         0.0222 
     26 CB        -68.0371   28.9273  -74.2271 C.3       9 UNK        -0.1966 
     27 N         -70.3256   28.2665  -74.8222 N.am      9 UNK        -0.4218 
     28 C         -71.4438   28.2603  -75.5597 C.2       9 UNK         0.5020 
     29 O         -71.8256   29.2152  -76.2415 O.2       9 UNK        -0.5274 
     30 CA        -72.2809   26.9713  -75.5292 C.3       8 UNK         0.0270 
     31 CB        -73.5357   27.1577  -74.6627 C.3       8 UNK        -0.1976 
     32 N         -72.6738   26.5807  -76.8847 N.am      8 UNK        -0.4313 
     33 C         -71.8389   26.0207  -77.7729 C.2       8 UNK         0.5041 
     34 O         -70.6753   25.7164  -77.5003 O.2       8 UNK        -0.5577 
     35 CA        -72.3657   25.7741  -79.2039 C.3       7 UNK         0.0284 
     36 CB        -71.6659   24.5861  -79.9001 C.3       7 UNK        -0.1958 
     37 N         -73.8256   25.6508  -79.2964 N.am      7 UNK        -0.4454 
     38 C         -74.6045   24.7081  -78.7468 C.2       7 UNK         0.5089 
     39 O         -74.1912   23.7500  -78.0914 O.2       7 UNK        -0.5125 
     40 CA        -76.1192   24.9027  -78.9460 C.3       6 UNK         0.0408 
     41 CB        -76.7849   23.6088  -79.4420 C.3       6 UNK        -0.1791 
     42 N         -76.7927   25.3577  -77.7262 N.am      6 UNK        -0.4762 
     43 C         -76.4763   26.4504  -77.0103 C.2       6 UNK         0.5007 
     44 O         -75.5498   27.2076  -77.3054 O.2       6 UNK        -0.5032 
     45 CA        -77.3403   26.7645  -75.7648 C.3       5 UNK         0.0783 
     46 C46       -78.3956   27.8543  -76.0940 C.3       11 UNK        -0.0857 
     47 S47       -77.6891   29.5398  -76.1557 S.3       11 UNK        -0.2512 
     48 C48       -78.4090   30.3388  -74.6865 C.3       11 UNK         0.0225 
     49 N         -77.9701   25.5698  -75.1858 N.am      5 UNK        -0.4615 
     50 C         -77.3217   24.5151  -74.6696 C.2       4 UNK         0.5053 
     51 O         -76.1001   24.4682  -74.5346 O.2       4 UNK        -0.5105 
     52 CA        -78.1589   23.2878  -74.2586 C.3       4 UNK         0.0263 
     53 CB        -78.2689   23.1791  -72.7321 C.3       4 UNK        -0.1981 
     54 N         -79.5023   23.2596  -74.8457 N.am      4 UNK        -0.4224 
     55 C         -79.7535   23.0241  -76.1418 C.2       3 UNK         0.4895 
     56 O         -78.8793   22.7895  -76.9755 O.2       3 UNK        -0.5091 
     57 CA        -81.2199   23.1076  -76.5924 C.3       3 UNK         0.0250 
     58 CB        -81.9992   21.8444  -76.1910 C.3       3 UNK        -0.1996 
     59 N         -81.8820   24.2992  -76.0590 N.am      3 UNK        -0.4254 
     60 C         -81.6352   25.5476  -76.4822 C.2       2 UNK         0.5004 
     61 O         -80.8781   25.8158  -77.4145 O.2       2 UNK        -0.5226 
     62 CA        -82.3312   26.6980  -75.7322 C.3       2 UNK         0.0269 
     63 CB        -83.6319   27.0953  -76.4481 C.3       2 UNK        -0.1926 
     64 N         -82.6229   26.4080  -74.3237 N.am      2 UNK        -0.4687 
     65 C         -81.6970   26.1700  -73.3827 C.2       1 UNK         0.5165 
     66 O         -80.4904   26.1245  -73.6232 O.2       1 UNK        -0.5079 
     67 H67       -83.5778   21.5702  -71.7282 H         1 UNK         0.0900 
     68 H68       -84.1488   22.0218  -73.3364 H         1 UNK         0.0900 
     69 H69       -84.8374   22.7935  -71.9057 H         1 UNK         0.0900 
     70 H70       -84.0697   24.8653  -71.6342 H         1 UNK         0.2959 
     71 H71       -82.8720   26.7144  -71.7028 H         1 UNK         0.1079 
     72 H72       -81.6312   25.3792  -69.9414 H         1 UNK         0.0837 
     73 H73       -80.4301   24.9700  -71.1152 H         1 UNK         0.0837 
     74 H74       -78.5906   26.1741  -71.6651 H         1 UNK         0.0685 
     75 H75       -78.0707   26.6294  -70.0614 H         1 UNK         0.0685 
     76 H76       -79.3788   28.3106  -73.1603 H         1 UNK         0.1434 
     77 H77       -76.1556   31.1273  -73.3483 H         1 UNK         0.1329 
     78 H78       -76.3742   28.3204  -70.1100 H         1 UNK         0.1335 
     79 H79       -74.9510   30.4126  -69.9728 H         1 UNK         0.0680 
     80 H80       -74.7280   31.4095  -71.3940 H         1 UNK         0.0680 
     81 H81       -72.5118   31.0127  -69.9908 H         1 UNK         0.1032 
     82 H82       -71.4885   29.6112  -70.1230 H         1 UNK         0.1032 
     83 H83       -71.7926   31.7766  -72.2603 H         1 UNK         0.0461 
     84 H84       -68.5218   30.8219  -71.4731 H         1 UNK         0.3453 
     85 H85       -68.1815   32.1996  -70.4554 H         1 UNK         0.3453 
     86 H86       -70.7078   29.1740  -72.5351 H         1 UNK         0.2984 
     87 H87       -69.2709   29.8186  -75.7319 H         1 UNK         0.0554 
     88 H88       -67.3321   29.7578  -74.1668 H         1 UNK         0.0847 
     89 H89       -67.6045   28.1884  -74.9020 H         1 UNK         0.0847 
     90 H90       -68.0987   28.4796  -73.2345 H         1 UNK         0.0847 
     91 H91       -70.0780   27.4352  -74.3042 H         1 UNK         0.3141 
     92 H92       -71.6878   26.1626  -75.0967 H         1 UNK         0.0743 
     93 H93       -73.2641   27.3474  -73.6249 H         1 UNK         0.0784 
     94 H94       -74.1441   27.9979  -75.0013 H         1 UNK         0.0784 
     95 H95       -74.1587   26.2644  -74.6724 H         1 UNK         0.0784 
     96 H96       -73.6147   26.8327  -77.1761 H         1 UNK         0.3213 
     97 H97       -72.1086   26.6738  -79.7650 H         1 UNK         0.0855 
     98 H98       -71.8082   23.6544  -79.3519 H         1 UNK         0.0814 
     99 H99       -70.5911   24.7545  -79.9770 H         1 UNK         0.0814 
    100 H100      -72.0413   24.4412  -80.9130 H         1 UNK         0.0814 
    101 H101      -74.2899   26.4135  -79.7714 H         1 UNK         0.3105 
    102 H102      -76.2776   25.6687  -79.7077 H         1 UNK         0.0547 
    103 H103      -76.6991   22.8049  -78.7096 H         1 UNK         0.0837 
    104 H104      -77.8448   23.7593  -79.6483 H         1 UNK         0.0837 
    105 H105      -76.3203   23.2593  -80.3649 H         1 UNK         0.0837 
    106 H106      -77.5460   24.7721  -77.3887 H         1 UNK         0.3020 
    107 H107      -76.6672   27.1561  -74.9985 H         1 UNK         0.1245 
    108 H108      -79.1974   27.8417  -75.3578 H         1 UNK         0.0781 
    109 H109      -78.8865   27.6494  -77.0473 H         1 UNK         0.0781 
    110 H110      -78.2147   31.4111  -74.7404 H         1 UNK         0.0836 
    111 H111      -79.4945   30.2286  -74.7028 H         1 UNK         0.0836 
    112 H112      -78.9819   25.5567  -75.1622 H         1 UNK         0.3022 
    113 H113      -77.6211   22.4068  -74.6155 H         1 UNK         0.0747 
    114 H114      -77.2847   23.1917  -72.2619 H         1 UNK         0.0793 
    115 H115      -78.7624   22.2537  -72.4347 H         1 UNK         0.0793 
    116 H116      -78.8409   24.0069  -72.3220 H         1 UNK         0.0793 
    117 H117      -80.2812   23.4240  -74.2119 H         1 UNK         0.3047 
    118 H118      -81.2284   23.1732  -77.6829 H         1 UNK         0.0822 
    119 H119      -81.5393   20.9535  -76.6207 H         1 UNK         0.0807 
    120 H120      -83.0277   21.8819  -76.5504 H         1 UNK         0.0807 
    121 H121      -82.0262   21.7046  -75.1104 H         1 UNK         0.0807 
    122 H122      -82.4908   24.1722  -75.2638 H         1 UNK         0.2946 
    123 H123      -81.6526   27.5534  -75.7595 H         1 UNK         0.1144 
    124 H124      -83.4421   27.3417  -77.4940 H         1 UNK         0.0793 
    125 H125      -84.0864   27.9733  -75.9888 H         1 UNK         0.0793 
    126 H126      -84.3654   26.2882  -76.4317 H         1 UNK         0.0793 
    127 H127      -83.5969   26.3920  -74.0562 H         1 UNK         0.2896 
@<TRIPOS>BOND
     1    1    2 1    
     2    1   67 1    
     3    1   68 1    
     4    1   69 1    
     5    2    3 2    
     6    2    4 am   BACKBONE|DICT|INTERRES
     7    4    5 1    
     8    4   70 1    
     9    5    6 1    
    10    5   65 1    
    11    5   71 1    
    12    6    7 1    
    13    6   72 1    
    14    6   73 1    
    15    7    8 1    
    16    8    9 1    
    17    8   74 1    
    18    8   75 1    
    19    9   10 ar   
    20    9   14 ar   
    21   10   11 ar   
    22   10   76 1    
    23   11   12 ar   
    24   11   48 1    
    25   12   13 ar   
    26   12   77 1    
    27   13   14 ar   
    28   13   15 1    
    29   14   78 1    
    30   15   16 1    
    31   15   79 1    
    32   15   80 1    
    33   16   17 1    
    34   17   18 1    
    35   17   81 1    
    36   17   82 1    
    37   18   19 1    
    38   18   22 1    
    39   18   83 1    
    40   19   20 am   BACKBONE|DICT|INTERRES
    41   19   21 2    
    42   20   84 1    
    43   20   85 1    
    44   22   23 am   BACKBONE|DICT|INTERRES
    45   22   86 1    
    46   23   24 2    
    47   23   25 1    
    48   25   26 1    
    49   25   27 1    
    50   25   87 1    
    51   26   88 1    
    52   26   89 1    
    53   26   90 1    
    54   27   28 am   BACKBONE|DICT|INTERRES
    55   27   91 1    
    56   28   29 2    
    57   28   30 1    
    58   30   31 1    
    59   30   32 1    
    60   30   92 1    
    61   31   93 1    
    62   31   94 1    
    63   31   95 1    
    64   32   33 am   BACKBONE|DICT|INTERRES
    65   32   96 1    
    66   33   34 2    
    67   33   35 1    
    68   35   36 1    
    69   35   37 1    
    70   35   97 1    
    71   36   98 1    
    72   36   99 1    
    73   36  100 1    
    74   37   38 am   BACKBONE|DICT|INTERRES
    75   37  101 1    
    76   38   39 2    
    77   38   40 1    
    78   40   41 1    
    79   40   42 1    
    80   40  102 1    
    81   41  103 1    
    82   41  104 1    
    83   41  105 1    
    84   42   43 am   BACKBONE|DICT|INTERRES
    85   42  106 1    
    86   43   44 2    
    87   43   45 1    
    88   45   46 1    
    89   45   49 1    
    90   45  107 1    
    91   46   47 1    
    92   46  108 1    
    93   46  109 1    
    94   47   48 1    
    95   48  110 1    
    96   48  111 1    
    97   49   50 am   BACKBONE|DICT|INTERRES
    98   49  112 1    
    99   50   51 2    
   100   50   52 1    
   101   52   53 1    
   102   52   54 1    
   103   52  113 1    
   104   53  114 1    
   105   53  115 1    
   106   53  116 1    
   107   54   55 am   BACKBONE|DICT|INTERRES
   108   54  117 1    
   109   55   56 2    
   110   55   57 1    
   111   57   58 1    
   112   57   59 1    
   113   57  118 1    
   114   58  119 1    
   115   58  120 1    
   116   58  121 1    
   117   59   60 am   BACKBONE|DICT|INTERRES
   118   59  122 1    
   119   60   61 2    
   120   60   62 1    
   121   62   63 1    
   122   62   64 1    
   123   62  123 1    
   124   63  124 1    
   125   63  125 1    
   126   63  126 1    
   127   64   65 am   BACKBONE|DICT|INTERRES
   128   64  127 1    
   129   65   66 2    
@<TRIPOS>SUBSTRUCTURE
     1 UNK         1 GROUP             0       ****    0 ROOT    
