@<TRIPOS>MOLECULE
3R135
127   129    1
SMALL
USER_CHARGES


@<TRIPOS>ATOM
      1 CA        -84.2989   24.6905  -73.8996 C.3       0 UNK        -0.1998 
      2 C         -83.4729   25.9676  -73.8983 C.2       0 UNK         0.4909 
      3 O         -83.3042   26.5878  -74.9490 O.2       0 UNK        -0.5240 
      4 N         -82.9544   26.3667  -72.7283 N.am      1 UNK        -0.4739 
      5 CA        -82.0612   27.5191  -72.5653 C.3       1 UNK         0.0864 
      6 C6        -81.8548   27.8661  -71.0704 C.3       11 UNK        -0.0881 
      7 S7        -81.0702   29.4982  -70.8112 S.3       11 UNK        -0.2682 
      8 C8        -79.6633   29.0956  -69.7234 C.3       11 UNK         0.0289 
      9 C9        -78.4654   28.5320  -70.4793 C.ar      11 UNK        -0.0687 
     10 C10       -78.3487   27.1560  -70.6913 C.ar      11 UNK        -0.0823 
     11 C11       -77.2371   26.6161  -71.3449 C.ar      11 UNK        -0.0830 
     12 C12       -76.2144   27.4780  -71.7628 C.ar      11 UNK        -0.1021 
     13 C13       -76.3176   28.8581  -71.5658 C.ar      11 UNK        -0.0753 
     14 C14       -77.4487   29.3800  -70.9293 C.ar      11 UNK        -0.0933 
     15 C15       -75.1977   29.7843  -72.0220 C.3       11 UNK         0.0166 
     16 S16       -75.5247   30.4753  -73.6731 S.3       11 UNK        -0.2615 
     17 C17       -75.1199   29.0663  -74.7667 C.3       11 UNK        -0.0865 
     18 CA        -74.0827   29.3517  -75.8895 C.3       10 UNK         0.0862 
     19 C         -74.5124   30.3217  -77.0303 C.2       10 UNK         0.5551 
     20 N         -75.6309   31.0220  -76.9089 N.am      10 UNK        -0.7319 
     21 O         -73.8470   30.3959  -78.0613 O.2       10 UNK        -0.5018 
     22 N         -72.7207   29.5620  -75.3798 N.am      10 UNK        -0.4509 
     23 C         -72.1140   30.7147  -75.0591 C.2       10 UNK         0.4899 
     24 O         -72.6582   31.8187  -75.0909 O.2       10 UNK        -0.4839 
     25 CA        -70.6177   30.6405  -74.6849 C.3       9 UNK         0.0222 
     26 CB        -70.2788   31.4949  -73.4440 C.3       9 UNK        -0.1966 
     27 N         -70.0896   29.2708  -74.5775 N.am      9 UNK        -0.4218 
     28 C         -70.3250   28.3676  -73.6136 C.2       9 UNK         0.5020 
     29 O         -70.9768   28.5926  -72.5926 O.2       9 UNK        -0.5274 
     30 CA        -69.7705   26.9552  -73.8909 C.3       8 UNK         0.0270 
     31 CB        -70.0940   25.9518  -72.7620 C.3       8 UNK        -0.1976 
     32 N         -70.2098   26.4250  -75.1936 N.am      8 UNK        -0.4313 
     33 C         -71.4773   26.2480  -75.5967 C.2       8 UNK         0.5041 
     34 O         -72.4631   26.5586  -74.9212 O.2       8 UNK        -0.5577 
     35 CA        -71.6922   25.6334  -76.9883 C.3       7 UNK         0.0284 
     36 CB        -71.0894   24.2152  -77.0729 C.3       7 UNK        -0.1958 
     37 N         -73.1341   25.5834  -77.2053 N.am      7 UNK        -0.4454 
     38 C         -73.7998   25.2774  -78.3228 C.2       7 UNK         0.5089 
     39 O         -73.2535   25.0736  -79.4081 O.2       7 UNK        -0.5125 
     40 CA        -75.3389   25.1817  -78.1964 C.3       6 UNK         0.0408 
     41 CB        -75.9624   24.2362  -79.2434 C.3       6 UNK        -0.1791 
     42 N         -75.8073   24.8307  -76.8456 N.am      6 UNK        -0.4762 
     43 C         -75.4846   23.7374  -76.1317 C.2       6 UNK         0.5007 
     44 O         -74.7700   22.8254  -76.5485 O.2       6 UNK        -0.5032 
     45 CA        -76.0476   23.6564  -74.7047 C.3       5 UNK         0.0783 
     46 C46       -75.4597   24.7708  -73.8038 C.3       11 UNK        -0.0857 
     47 S47       -75.6074   24.3672  -72.0314 S.3       11 UNK        -0.2512 
     48 C48       -77.2166   25.1044  -71.5818 C.3       11 UNK         0.0225 
     49 N         -77.5059   23.7186  -74.7669 N.am      5 UNK        -0.4615 
     50 C         -78.3181   22.6547  -74.7908 C.2       4 UNK         0.5053 
     51 O         -77.9289   21.4909  -74.6923 O.2       4 UNK        -0.5105 
     52 CA        -79.8240   22.9294  -74.9557 C.3       4 UNK         0.0263 
     53 CB        -80.5378   22.8722  -73.5951 C.3       4 UNK        -0.1981 
     54 N         -80.0882   24.2190  -75.6017 N.am      4 UNK        -0.4224 
     55 C         -79.9118   24.4388  -76.9148 C.2       3 UNK         0.4895 
     56 O         -79.6042   23.5547  -77.7147 O.2       3 UNK        -0.5091 
     57 CA        -80.0881   25.8747  -77.4404 C.3       3 UNK         0.0250 
     58 CB        -81.4471   26.0258  -78.1426 C.3       3 UNK        -0.1996 
     59 N         -79.9617   26.9116  -76.4151 N.am      3 UNK        -0.4254 
     60 C         -78.8353   27.2177  -75.7560 C.2       2 UNK         0.5004 
     61 O         -77.7590   26.6420  -75.9227 O.2       2 UNK        -0.5226 
     62 CA        -78.9450   28.3258  -74.6954 C.3       2 UNK         0.0269 
     63 CB        -78.7759   29.7054  -75.3516 C.3       2 UNK        -0.1926 
     64 N         -80.2029   28.3203  -73.9442 N.am      2 UNK        -0.4687 
     65 C         -80.7254   27.2721  -73.2947 C.2       1 UNK         0.5165 
     66 O         -80.2123   26.1507  -73.2701 O.2       1 UNK        -0.5079 
     67 H67       -84.3081   24.2096  -72.9216 H         1 UNK         0.0900 
     68 H68       -83.8920   23.9827  -74.6213 H         1 UNK         0.0900 
     69 H69       -85.3283   24.9103  -74.1811 H         1 UNK         0.0900 
     70 H70       -83.1034   25.8043  -71.9028 H         1 UNK         0.2959 
     71 H71       -82.5574   28.3673  -73.0430 H         1 UNK         0.1079 
     72 H72       -82.8235   27.9033  -70.5694 H         1 UNK         0.0837 
     73 H73       -81.2957   27.0803  -70.5625 H         1 UNK         0.0837 
     74 H74       -79.3655   30.0049  -69.1991 H         1 UNK         0.0685 
     75 H75       -79.9852   28.3990  -68.9477 H         1 UNK         0.0685 
     76 H76       -79.1307   26.4939  -70.3483 H         1 UNK         0.1434 
     77 H77       -75.3306   27.0878  -72.2438 H         1 UNK         0.1329 
     78 H78       -77.5293   30.4467  -70.7708 H         1 UNK         0.1335 
     79 H79       -75.0952   30.6081  -71.3141 H         1 UNK         0.0680 
     80 H80       -74.2371   29.2658  -72.0220 H         1 UNK         0.0680 
     81 H81       -76.0400   28.6855  -75.2056 H         1 UNK         0.1032 
     82 H82       -74.7419   28.2422  -74.1617 H         1 UNK         0.1032 
     83 H83       -73.9958   28.4012  -76.4176 H         1 UNK         0.0461 
     84 H84       -75.9153   31.6371  -77.6543 H         1 UNK         0.3453 
     85 H85       -76.1305   31.0150  -76.0327 H         1 UNK         0.3453 
     86 H86       -72.1932   28.7083  -75.2583 H         1 UNK         0.2984 
     87 H87       -70.0873   31.0838  -75.5289 H         1 UNK         0.0554 
     88 H88       -69.2216   31.4264  -73.1883 H         1 UNK         0.0847 
     89 H89       -70.8581   31.1940  -72.5708 H         1 UNK         0.0847 
     90 H90       -70.4993   32.5476  -73.6248 H         1 UNK         0.0847 
     91 H91       -69.5441   28.9634  -75.3716 H         1 UNK         0.3141 
     92 H92       -68.6849   27.0539  -73.9399 H         1 UNK         0.0743 
     93 H93       -71.1689   25.8183  -72.6328 H         1 UNK         0.0784 
     94 H94       -69.6573   24.9738  -72.9635 H         1 UNK         0.0784 
     95 H95       -69.6931   26.2955  -71.8076 H         1 UNK         0.0784 
     96 H96       -69.4678   26.1567  -75.8261 H         1 UNK         0.3213 
     97 H97       -71.2393   26.2853  -77.7378 H         1 UNK         0.0855 
     98 H98       -71.5271   23.5502  -76.3269 H         1 UNK         0.0814 
     99 H99       -70.0114   24.2263  -76.9104 H         1 UNK         0.0814 
    100 H100      -71.2546   23.7666  -78.0524 H         1 UNK         0.0814 
    101 H101      -73.6552   25.7917  -76.3610 H         1 UNK         0.3105 
    102 H102      -75.7191   26.1853  -78.3919 H         1 UNK         0.0547 
    103 H103      -75.7425   24.5725  -80.2572 H         1 UNK         0.0837 
    104 H104      -75.5796   23.2197  -79.1477 H         1 UNK         0.0837 
    105 H105      -77.0474   24.1961  -79.1447 H         1 UNK         0.0837 
    106 H106      -76.4405   25.5114  -76.4256 H         1 UNK         0.3020 
    107 H107      -75.7348   22.6908  -74.2992 H         1 UNK         0.1245 
    108 H108      -75.9258   25.7339  -74.0167 H         1 UNK         0.0781 
    109 H109      -74.3931   24.9021  -73.9964 H         1 UNK         0.0781 
    110 H110      -77.5525   24.6055  -70.6715 H         1 UNK         0.0836 
    111 H111      -77.9540   24.8611  -72.3459 H         1 UNK         0.0836 
    112 H112      -77.9084   24.6369  -74.8989 H         1 UNK         0.3022 
    113 H113      -80.2375   22.1379  -75.5846 H         1 UNK         0.0747 
    114 H114      -81.6031   23.0786  -73.6939 H         1 UNK         0.0793 
    115 H115      -80.4396   21.8818  -73.1489 H         1 UNK         0.0793 
    116 H116      -80.1207   23.5865  -72.8855 H         1 UNK         0.0793 
    117 H117      -80.3125   24.9969  -74.9892 H         1 UNK         0.3047 
    118 H118      -79.3005   26.0434  -78.1783 H         1 UNK         0.0822 
    119 H119      -81.5532   27.0113  -78.5964 H         1 UNK         0.0807 
    120 H120      -82.2769   25.8833  -77.4491 H         1 UNK         0.0807 
    121 H121      -81.5593   25.2901  -78.9403 H         1 UNK         0.0807 
    122 H122      -80.8050   27.4136  -76.1737 H         1 UNK         0.2946 
    123 H123      -78.1349   28.1705  -73.9794 H         1 UNK         0.1144 
    124 H124      -79.6540   29.9864  -75.9341 H         1 UNK         0.0793 
    125 H125      -77.9278   29.7210  -76.0348 H         1 UNK         0.0793 
    126 H126      -78.6069   30.4798  -74.6029 H         1 UNK         0.0793 
    127 H127      -80.6857   29.2054  -73.8849 H         1 UNK         0.2896 
@<TRIPOS>BOND
     1    1    2 1    
     2    1   67 1    
     3    1   68 1    
     4    1   69 1    
     5    2    3 2    
     6    2    4 am   BACKBONE|DICT|INTERRES
     7    4    5 1    
     8    4   70 1    
     9    5    6 1    
    10    5   65 1    
    11    5   71 1    
    12    6    7 1    
    13    6   72 1    
    14    6   73 1    
    15    7    8 1    
    16    8    9 1    
    17    8   74 1    
    18    8   75 1    
    19    9   10 ar   
    20    9   14 ar   
    21   10   11 ar   
    22   10   76 1    
    23   11   12 ar   
    24   11   48 1    
    25   12   13 ar   
    26   12   77 1    
    27   13   14 ar   
    28   13   15 1    
    29   14   78 1    
    30   15   16 1    
    31   15   79 1    
    32   15   80 1    
    33   16   17 1    
    34   17   18 1    
    35   17   81 1    
    36   17   82 1    
    37   18   19 1    
    38   18   22 1    
    39   18   83 1    
    40   19   20 am   BACKBONE|DICT|INTERRES
    41   19   21 2    
    42   20   84 1    
    43   20   85 1    
    44   22   23 am   BACKBONE|DICT|INTERRES
    45   22   86 1    
    46   23   24 2    
    47   23   25 1    
    48   25   26 1    
    49   25   27 1    
    50   25   87 1    
    51   26   88 1    
    52   26   89 1    
    53   26   90 1    
    54   27   28 am   BACKBONE|DICT|INTERRES
    55   27   91 1    
    56   28   29 2    
    57   28   30 1    
    58   30   31 1    
    59   30   32 1    
    60   30   92 1    
    61   31   93 1    
    62   31   94 1    
    63   31   95 1    
    64   32   33 am   BACKBONE|DICT|INTERRES
    65   32   96 1    
    66   33   34 2    
    67   33   35 1    
    68   35   36 1    
    69   35   37 1    
    70   35   97 1    
    71   36   98 1    
    72   36   99 1    
    73   36  100 1    
    74   37   38 am   BACKBONE|DICT|INTERRES
    75   37  101 1    
    76   38   39 2    
    77   38   40 1    
    78   40   41 1    
    79   40   42 1    
    80   40  102 1    
    81   41  103 1    
    82   41  104 1    
    83   41  105 1    
    84   42   43 am   BACKBONE|DICT|INTERRES
    85   42  106 1    
    86   43   44 2    
    87   43   45 1    
    88   45   46 1    
    89   45   49 1    
    90   45  107 1    
    91   46   47 1    
    92   46  108 1    
    93   46  109 1    
    94   47   48 1    
    95   48  110 1    
    96   48  111 1    
    97   49   50 am   BACKBONE|DICT|INTERRES
    98   49  112 1    
    99   50   51 2    
   100   50   52 1    
   101   52   53 1    
   102   52   54 1    
   103   52  113 1    
   104   53  114 1    
   105   53  115 1    
   106   53  116 1    
   107   54   55 am   BACKBONE|DICT|INTERRES
   108   54  117 1    
   109   55   56 2    
   110   55   57 1    
   111   57   58 1    
   112   57   59 1    
   113   57  118 1    
   114   58  119 1    
   115   58  120 1    
   116   58  121 1    
   117   59   60 am   BACKBONE|DICT|INTERRES
   118   59  122 1    
   119   60   61 2    
   120   60   62 1    
   121   62   63 1    
   122   62   64 1    
   123   62  123 1    
   124   63  124 1    
   125   63  125 1    
   126   63  126 1    
   127   64   65 am   BACKBONE|DICT|INTERRES
   128   64  127 1    
   129   65   66 2    
@<TRIPOS>SUBSTRUCTURE
     1 UNK         1 GROUP             0       ****    0 ROOT    
