@<TRIPOS>MOLECULE
3R135
127   129    1
SMALL
USER_CHARGES


@<TRIPOS>ATOM
      1 CA        -82.7111   22.5724  -69.5320 C.3       0 UNK        -0.1998 
      2 C         -83.1076   23.5522  -70.6263 C.2       0 UNK         0.4909 
      3 O         -84.2242   23.4776  -71.1411 O.2       0 UNK        -0.5240 
      4 N         -82.2055   24.4764  -70.9765 N.am      1 UNK        -0.4739 
      5 CA        -82.3676   25.4443  -72.0657 C.3       1 UNK         0.0864 
      6 C6        -81.3784   26.6370  -71.9521 C.3       11 UNK        -0.0881 
      7 S7        -79.6701   26.1843  -71.4730 S.3       11 UNK        -0.2682 
      8 C8        -79.1348   27.6475  -70.5261 C.3       11 UNK         0.0289 
      9 C9        -78.4652   28.6801  -71.4218 C.ar      11 UNK        -0.0687 
     10 C10       -79.2087   29.3677  -72.3835 C.ar      11 UNK        -0.0823 
     11 C11       -78.5893   30.2720  -73.2488 C.ar      11 UNK        -0.0830 
     12 C12       -77.2234   30.5384  -73.1083 C.ar      11 UNK        -0.1021 
     13 C13       -76.4744   29.8790  -72.1292 C.ar      11 UNK        -0.0753 
     14 C14       -77.0976   28.9430  -71.2977 C.ar      11 UNK        -0.0933 
     15 C15       -74.9934   30.1740  -71.9602 C.3       11 UNK         0.0166 
     16 S16       -73.9752   29.0044  -72.9086 S.3       11 UNK        -0.2615 
     17 C17       -72.3196   29.3675  -72.2290 C.3       11 UNK        -0.0865 
     18 CA        -71.4475   30.2651  -73.1460 C.3       10 UNK         0.0862 
     19 C         -70.0988   30.5882  -72.4350 C.2       10 UNK         0.5551 
     20 N         -68.9808   29.9823  -72.8215 N.am      10 UNK        -0.7319 
     21 O         -70.0730   31.4009  -71.5143 O.2       10 UNK        -0.5018 
     22 N         -71.2933   29.6792  -74.4851 N.am      10 UNK        -0.4509 
     23 C         -70.7389   30.2866  -75.5426 C.2       10 UNK         0.4899 
     24 O         -70.4600   31.4860  -75.5683 O.2       10 UNK        -0.4839 
     25 CA        -70.4339   29.4074  -76.7762 C.3       9 UNK         0.0222 
     26 CB        -69.1072   29.8071  -77.4552 C.3       9 UNK        -0.1966 
     27 N         -70.4630   27.9579  -76.5155 N.am      9 UNK        -0.4218 
     28 C         -69.7086   27.2619  -75.6460 C.2       9 UNK         0.5020 
     29 O         -68.8415   27.7774  -74.9375 O.2       9 UNK        -0.5274 
     30 CA        -70.0284   25.7621  -75.4893 C.3       8 UNK         0.0270 
     31 CB        -69.6533   25.2284  -74.0934 C.3       8 UNK        -0.1976 
     32 N         -71.4536   25.5160  -75.7253 N.am      8 UNK        -0.4313 
     33 C         -71.9645   24.7788  -76.7183 C.2       8 UNK         0.5041 
     34 O         -71.2890   24.1043  -77.4965 O.2       8 UNK        -0.5577 
     35 CA        -73.4923   24.8441  -76.9032 C.3       7 UNK         0.0284 
     36 CB        -74.1842   23.7102  -76.1329 C.3       7 UNK        -0.1958 
     37 N         -74.0857   26.1358  -76.5252 N.am      7 UNK        -0.4454 
     38 C         -73.8083   27.3037  -77.1280 C.2       7 UNK         0.5089 
     39 O         -72.9773   27.4111  -78.0309 O.2       7 UNK        -0.5125 
     40 CA        -74.5183   28.5719  -76.6113 C.3       6 UNK         0.0408 
     41 CB        -74.7371   29.6216  -77.7207 C.3       6 UNK        -0.1791 
     42 N         -75.7642   28.3122  -75.8826 N.am      6 UNK        -0.4762 
     43 C         -76.8831   27.7517  -76.3663 C.2       6 UNK         0.5007 
     44 O         -77.0191   27.3586  -77.5270 O.2       6 UNK        -0.5032 
     45 CA        -78.0444   27.5829  -75.3653 C.3       5 UNK         0.0783 
     46 C46       -79.2957   28.4154  -75.7609 C.3       11 UNK        -0.0857 
     47 S47       -78.9717   30.2062  -75.9884 S.3       11 UNK        -0.2512 
     48 C48       -79.3928   30.9185  -74.3651 C.3       11 UNK         0.0225 
     49 N         -78.3577   26.1598  -75.1978 N.am      5 UNK        -0.4615 
     50 C         -77.5025   25.2526  -74.6940 C.2       4 UNK         0.5053 
     51 O         -76.3851   25.5459  -74.2651 O.2       4 UNK        -0.5105 
     52 CA        -77.9238   23.7691  -74.6824 C.3       4 UNK         0.0263 
     53 CB        -78.2398   23.2824  -73.2604 C.3       4 UNK        -0.1981 
     54 N         -79.0528   23.4759  -75.5664 N.am      4 UNK        -0.4224 
     55 C         -78.9530   23.3989  -76.9023 C.2       3 UNK         0.4895 
     56 O         -77.8837   23.4756  -77.5079 O.2       3 UNK        -0.5091 
     57 CA        -80.2486   23.2121  -77.7160 C.3       3 UNK         0.0250 
     58 CB        -80.3535   21.7674  -78.2323 C.3       3 UNK        -0.1996 
     59 N         -81.4857   23.5536  -77.0065 N.am      3 UNK        -0.4254 
     60 C         -81.7997   24.7583  -76.5106 C.2       2 UNK         0.5004 
     61 O         -81.0484   25.7331  -76.5595 O.2       2 UNK        -0.5226 
     62 CA        -83.1648   24.9038  -75.8108 C.3       2 UNK         0.0269 
     63 CB        -84.0511   23.6372  -75.8688 C.3       2 UNK        -0.1926 
     64 N         -83.0199   25.3567  -74.4218 N.am      2 UNK        -0.4687 
     65 C         -82.3057   24.7652  -73.4512 C.2       1 UNK         0.5165 
     66 O         -81.6264   23.7477  -73.6187 O.2       1 UNK        -0.5079 
     67 H67       -83.4026   22.6460  -68.6930 H         1 UNK         0.0900 
     68 H68       -82.7438   21.5521  -69.9132 H         1 UNK         0.0900 
     69 H69       -81.7046   22.7632  -69.1599 H         1 UNK         0.0900 
     70 H70       -81.2914   24.4777  -70.5457 H         1 UNK         0.2959 
     71 H71       -83.3762   25.8540  -71.9705 H         1 UNK         0.1079 
     72 H72       -81.3433   27.2039  -72.8840 H         1 UNK         0.0837 
     73 H73       -81.7693   27.3300  -71.2061 H         1 UNK         0.0837 
     74 H74       -79.9762   28.0995  -69.9999 H         1 UNK         0.0685 
     75 H75       -78.4416   27.3142  -69.7523 H         1 UNK         0.0685 
     76 H76       -80.2659   29.1723  -72.4834 H         1 UNK         0.1434 
     77 H77       -76.7421   31.2430  -73.7732 H         1 UNK         0.1329 
     78 H78       -76.5133   28.4186  -70.5538 H         1 UNK         0.1335 
     79 H79       -74.7336   30.1170  -70.9019 H         1 UNK         0.0680 
     80 H80       -74.7665   31.1923  -72.2805 H         1 UNK         0.0680 
     81 H81       -71.8182   28.4139  -72.0522 H         1 UNK         0.1032 
     82 H82       -72.4296   29.8245  -71.2436 H         1 UNK         0.1032 
     83 H83       -71.9677   31.2166  -73.2724 H         1 UNK         0.0461 
     84 H84       -68.1155   30.2005  -72.3540 H         1 UNK         0.3453 
     85 H85       -68.9897   29.2988  -73.5711 H         1 UNK         0.3453 
     86 H86       -71.4905   28.6946  -74.5538 H         1 UNK         0.2984 
     87 H87       -71.2383   29.6011  -77.4868 H         1 UNK         0.0554 
     88 H88       -69.1308   30.8465  -77.7849 H         1 UNK         0.0847 
     89 H89       -68.9122   29.1959  -78.3363 H         1 UNK         0.0847 
     90 H90       -68.2584   29.7013  -76.7788 H         1 UNK         0.0847 
     91 H91       -71.1561   27.4501  -77.0570 H         1 UNK         0.3141 
     92 H92       -69.4208   25.2370  -76.2290 H         1 UNK         0.0743 
     93 H93       -70.1811   25.7613  -73.3014 H         1 UNK         0.0784 
     94 H94       -69.8894   24.1683  -73.9994 H         1 UNK         0.0784 
     95 H95       -68.5843   25.3368  -73.9049 H         1 UNK         0.0784 
     96 H96       -72.1027   26.0121  -75.1308 H         1 UNK         0.3213 
     97 H97       -73.6893   24.6952  -77.9672 H         1 UNK         0.0855 
     98 H98       -74.1241   23.8542  -75.0534 H         1 UNK         0.0814 
     99 H99       -73.7308   22.7447  -76.3619 H         1 UNK         0.0814 
    100 H100      -75.2357   23.6423  -76.4092 H         1 UNK         0.0814 
    101 H101      -74.7828   26.1249  -75.7891 H         1 UNK         0.3105 
    102 H102      -73.8361   29.0145  -75.8859 H         1 UNK         0.0547 
    103 H103      -75.2257   30.5145  -77.3308 H         1 UNK         0.0837 
    104 H104      -75.3505   29.2311  -78.5330 H         1 UNK         0.0837 
    105 H105      -73.7885   29.9382  -78.1556 H         1 UNK         0.0837 
    106 H106      -75.7425   28.5653  -74.9024 H         1 UNK         0.3020 
    107 H107      -77.7056   27.9333  -74.3891 H         1 UNK         0.1245 
    108 H108      -80.0845   28.2843  -75.0190 H         1 UNK         0.0781 
    109 H109      -79.7077   28.0399  -76.6991 H         1 UNK         0.0781 
    110 H110      -80.4646   30.8090  -74.1920 H         1 UNK         0.0836 
    111 H111      -79.1935   31.9910  -74.3835 H         1 UNK         0.0836 
    112 H112      -79.2426   25.8494  -75.5852 H         1 UNK         0.3022 
    113 H113      -77.0635   23.1945  -75.0295 H         1 UNK         0.0747 
    114 H114      -78.3876   22.2028  -73.2361 H         1 UNK         0.0793 
    115 H115      -77.4236   23.5143  -72.5748 H         1 UNK         0.0793 
    116 H116      -79.1395   23.7483  -72.8642 H         1 UNK         0.0793 
    117 H117      -79.9678   23.4168  -75.1341 H         1 UNK         0.3047 
    118 H118      -80.1764   23.8786  -78.5781 H         1 UNK         0.0822 
    119 H119      -81.2077   21.6432  -78.8984 H         1 UNK         0.0807 
    120 H120      -80.4566   21.0535  -77.4141 H         1 UNK         0.0807 
    121 H121      -79.4631   21.4879  -78.7977 H         1 UNK         0.0807 
    122 H122      -82.1551   22.8068  -76.8885 H         1 UNK         0.2946 
    123 H123      -83.6880   25.6974  -76.3471 H         1 UNK         0.1144 
    124 H124      -83.6021   22.7924  -75.3447 H         1 UNK         0.0793 
    125 H125      -84.2427   23.3321  -76.8985 H         1 UNK         0.0793 
    126 H126      -85.0229   23.8230  -75.4110 H         1 UNK         0.0793 
    127 H127      -83.5117   26.2111  -74.1987 H         1 UNK         0.2896 
@<TRIPOS>BOND
     1    1    2 1    
     2    1   67 1    
     3    1   68 1    
     4    1   69 1    
     5    2    3 2    
     6    2    4 am   BACKBONE|DICT|INTERRES
     7    4    5 1    
     8    4   70 1    
     9    5    6 1    
    10    5   65 1    
    11    5   71 1    
    12    6    7 1    
    13    6   72 1    
    14    6   73 1    
    15    7    8 1    
    16    8    9 1    
    17    8   74 1    
    18    8   75 1    
    19    9   10 ar   
    20    9   14 ar   
    21   10   11 ar   
    22   10   76 1    
    23   11   12 ar   
    24   11   48 1    
    25   12   13 ar   
    26   12   77 1    
    27   13   14 ar   
    28   13   15 1    
    29   14   78 1    
    30   15   16 1    
    31   15   79 1    
    32   15   80 1    
    33   16   17 1    
    34   17   18 1    
    35   17   81 1    
    36   17   82 1    
    37   18   19 1    
    38   18   22 1    
    39   18   83 1    
    40   19   20 am   BACKBONE|DICT|INTERRES
    41   19   21 2    
    42   20   84 1    
    43   20   85 1    
    44   22   23 am   BACKBONE|DICT|INTERRES
    45   22   86 1    
    46   23   24 2    
    47   23   25 1    
    48   25   26 1    
    49   25   27 1    
    50   25   87 1    
    51   26   88 1    
    52   26   89 1    
    53   26   90 1    
    54   27   28 am   BACKBONE|DICT|INTERRES
    55   27   91 1    
    56   28   29 2    
    57   28   30 1    
    58   30   31 1    
    59   30   32 1    
    60   30   92 1    
    61   31   93 1    
    62   31   94 1    
    63   31   95 1    
    64   32   33 am   BACKBONE|DICT|INTERRES
    65   32   96 1    
    66   33   34 2    
    67   33   35 1    
    68   35   36 1    
    69   35   37 1    
    70   35   97 1    
    71   36   98 1    
    72   36   99 1    
    73   36  100 1    
    74   37   38 am   BACKBONE|DICT|INTERRES
    75   37  101 1    
    76   38   39 2    
    77   38   40 1    
    78   40   41 1    
    79   40   42 1    
    80   40  102 1    
    81   41  103 1    
    82   41  104 1    
    83   41  105 1    
    84   42   43 am   BACKBONE|DICT|INTERRES
    85   42  106 1    
    86   43   44 2    
    87   43   45 1    
    88   45   46 1    
    89   45   49 1    
    90   45  107 1    
    91   46   47 1    
    92   46  108 1    
    93   46  109 1    
    94   47   48 1    
    95   48  110 1    
    96   48  111 1    
    97   49   50 am   BACKBONE|DICT|INTERRES
    98   49  112 1    
    99   50   51 2    
   100   50   52 1    
   101   52   53 1    
   102   52   54 1    
   103   52  113 1    
   104   53  114 1    
   105   53  115 1    
   106   53  116 1    
   107   54   55 am   BACKBONE|DICT|INTERRES
   108   54  117 1    
   109   55   56 2    
   110   55   57 1    
   111   57   58 1    
   112   57   59 1    
   113   57  118 1    
   114   58  119 1    
   115   58  120 1    
   116   58  121 1    
   117   59   60 am   BACKBONE|DICT|INTERRES
   118   59  122 1    
   119   60   61 2    
   120   60   62 1    
   121   62   63 1    
   122   62   64 1    
   123   62  123 1    
   124   63  124 1    
   125   63  125 1    
   126   63  126 1    
   127   64   65 am   BACKBONE|DICT|INTERRES
   128   64  127 1    
   129   65   66 2    
@<TRIPOS>SUBSTRUCTURE
     1 UNK         1 GROUP             0       ****    0 ROOT    
