@<TRIPOS>MOLECULE
3R135
127   129    1
SMALL
USER_CHARGES


@<TRIPOS>ATOM
      1 CA        -76.3447   23.3569  -73.2506 C.3       0 UNK        -0.1998 
      2 C         -77.8112   23.3067  -72.8566 C.2       0 UNK         0.4909 
      3 O         -78.4176   22.2360  -72.8957 O.2       0 UNK        -0.5240 
      4 N         -78.3786   24.4601  -72.4786 N.am      1 UNK        -0.4739 
      5 CA        -79.7677   24.6576  -72.0437 C.3       1 UNK         0.0864 
      6 C6        -80.0193   26.1282  -71.6234 C.3       11 UNK        -0.0881 
      7 S7        -79.0186   26.5900  -70.1708 S.3       11 UNK        -0.2682 
      8 C8        -79.3148   28.3847  -70.0739 C.3       11 UNK         0.0289 
      9 C9        -78.4961   29.1662  -71.0932 C.ar      11 UNK        -0.0687 
     10 C10       -79.1280   29.8983  -72.1036 C.ar      11 UNK        -0.0823 
     11 C11       -78.3757   30.6467  -73.0156 C.ar      11 UNK        -0.0830 
     12 C12       -76.9803   30.6429  -72.9248 C.ar      11 UNK        -0.1021 
     13 C13       -76.3384   29.9148  -71.9189 C.ar      11 UNK        -0.0753 
     14 C14       -77.1012   29.1867  -71.0017 C.ar      11 UNK        -0.0933 
     15 C15       -74.8206   29.8811  -71.8456 C.3       11 UNK         0.0166 
     16 S16       -74.1311   31.4152  -71.1648 S.3       11 UNK        -0.2615 
     17 C17       -72.3915   30.9258  -70.9012 C.3       11 UNK        -0.0865 
     18 CA        -71.5137   31.1083  -72.1670 C.3       10 UNK         0.0862 
     19 C         -70.0058   31.1383  -71.7963 C.2       10 UNK         0.5551 
     20 N         -69.4595   32.3150  -71.5235 N.am      10 UNK        -0.7319 
     21 O         -69.3411   30.1071  -71.7125 O.2       10 UNK        -0.5018 
     22 N         -71.7951   30.0718  -73.1711 N.am      10 UNK        -0.4509 
     23 C         -71.4938   30.1666  -74.4690 C.2       10 UNK         0.4899 
     24 O         -71.0459   31.1905  -74.9872 O.2       10 UNK        -0.4839 
     25 CA        -71.7212   28.9308  -75.3609 C.3       9 UNK         0.0222 
     26 CB        -70.4162   28.1276  -75.5208 C.3       9 UNK        -0.1966 
     27 N         -72.8383   28.0472  -74.9939 N.am      9 UNK        -0.4218 
     28 C         -72.9878   27.2482  -73.9269 C.2       9 UNK         0.5020 
     29 O         -72.2375   27.2569  -72.9507 O.2       9 UNK        -0.5274 
     30 CA        -74.1743   26.2634  -73.9544 C.3       8 UNK         0.0270 
     31 CB        -75.4367   26.8923  -73.3498 C.3       8 UNK        -0.1976 
     32 N         -74.4871   25.7728  -75.2987 N.am      8 UNK        -0.4313 
     33 C         -73.6996   24.9601  -76.0183 C.2       8 UNK         0.5041 
     34 O         -72.6289   24.5034  -75.6167 O.2       8 UNK        -0.5577 
     35 CA        -74.1921   24.5971  -77.4266 C.3       7 UNK         0.0284 
     36 CB        -75.1395   23.3894  -77.3698 C.3       7 UNK        -0.1958 
     37 N         -74.8683   25.7279  -78.0656 N.am      7 UNK        -0.4454 
     38 C         -74.2247   26.7431  -78.6602 C.2       7 UNK         0.5089 
     39 O         -73.0035   26.7881  -78.8086 O.2       7 UNK        -0.5125 
     40 CA        -75.0826   27.9203  -79.1584 C.3       6 UNK         0.0408 
     41 CB        -75.5604   27.6662  -80.5967 C.3       6 UNK        -0.1791 
     42 N         -76.2392   28.2014  -78.3039 N.am      6 UNK        -0.4762 
     43 C         -76.1715   28.6227  -77.0317 C.2       6 UNK         0.5007 
     44 O         -75.1155   28.8468  -76.4431 O.2       6 UNK        -0.5032 
     45 CA        -77.5055   28.7786  -76.2755 C.3       5 UNK         0.0783 
     46 C46       -78.0178   30.2347  -76.3882 C.3       11 UNK        -0.0857 
     47 S47       -79.5956   30.4977  -75.5071 S.3       11 UNK        -0.2512 
     48 C48       -79.0766   31.4883  -74.0722 C.3       11 UNK         0.0225 
     49 N         -78.5169   27.8061  -76.7028 N.am      5 UNK        -0.4615 
     50 C         -78.4122   26.4738  -76.6345 C.2       4 UNK         0.5053 
     51 O         -77.3996   25.8812  -76.2491 O.2       4 UNK        -0.5105 
     52 CA        -79.6648   25.7146  -77.0930 C.3       4 UNK         0.0263 
     53 CB        -79.9219   25.8813  -78.6069 C.3       4 UNK        -0.1981 
     54 N         -79.6756   24.3122  -76.6687 N.am      4 UNK        -0.4224 
     55 C         -79.0735   23.2455  -77.2181 C.2       3 UNK         0.4895 
     56 O         -78.3892   23.2887  -78.2407 O.2       3 UNK        -0.5091 
     57 CA        -79.2775   21.8790  -76.5256 C.3       3 UNK         0.0250 
     58 CB        -77.9298   21.2270  -76.1720 C.3       3 UNK        -0.1996 
     59 N         -80.1119   21.9503  -75.3198 N.am      3 UNK        -0.4254 
     60 C         -81.4520   22.0285  -75.3202 C.2       2 UNK         0.5004 
     61 O         -82.1390   21.9320  -76.3372 O.2       2 UNK        -0.5226 
     62 CA        -82.1476   22.3061  -73.9727 C.3       2 UNK         0.0269 
     63 CB        -82.6832   20.9996  -73.3652 C.3       2 UNK        -0.1926 
     64 N         -81.2908   22.9788  -72.9890 N.am      2 UNK        -0.4687 
     65 C         -80.7660   24.2051  -73.1293 C.2       1 UNK         0.5165 
     66 O         -80.9961   24.9367  -74.0935 O.2       1 UNK        -0.5079 
     67 H67       -75.9152   22.3550  -73.2656 H         1 UNK         0.0900 
     68 H68       -75.7719   23.9553  -72.5428 H         1 UNK         0.0900 
     69 H69       -76.2386   23.7876  -74.2455 H         1 UNK         0.0900 
     70 H70       -77.8171   25.2984  -72.4650 H         1 UNK         0.2959 
     71 H71       -79.9254   24.0280  -71.1651 H         1 UNK         0.1079 
     72 H72       -81.0701   26.2836  -71.3702 H         1 UNK         0.0837 
     73 H73       -79.7945   26.8102  -72.4464 H         1 UNK         0.0837 
     74 H74       -79.0464   28.7278  -69.0738 H         1 UNK         0.0685 
     75 H75       -80.3817   28.5831  -70.1880 H         1 UNK         0.0685 
     76 H76       -80.2073   29.8998  -72.1737 H         1 UNK         0.1434 
     77 H77       -76.3899   31.2134  -73.6289 H         1 UNK         0.1329 
     78 H78       -76.6108   28.6230  -70.2197 H         1 UNK         0.1335 
     79 H79       -74.4857   29.0357  -71.2428 H         1 UNK         0.0680 
     80 H80       -74.4250   29.7291  -72.8492 H         1 UNK         0.0680 
     81 H81       -72.3372   29.9006  -70.5297 H         1 UNK         0.1032 
     82 H82       -72.0195   31.5520  -70.0875 H         1 UNK         0.1032 
     83 H83       -71.7607   32.0763  -72.6090 H         1 UNK         0.0461 
     84 H84       -69.9982   33.1656  -71.5799 H         1 UNK         0.3453 
     85 H85       -68.4856   32.3559  -71.2653 H         1 UNK         0.3453 
     86 H86       -72.0523   29.1528  -72.8242 H         1 UNK         0.2984 
     87 H87       -71.9859   29.3158  -76.3471 H         1 UNK         0.0554 
     88 H88       -69.6131   28.7596  -75.9024 H         1 UNK         0.0847 
     89 H89       -70.5426   27.3035  -76.2235 H         1 UNK         0.0847 
     90 H90       -70.0767   27.7110  -74.5718 H         1 UNK         0.0847 
     91 H91       -73.6099   28.0664  -75.6578 H         1 UNK         0.3141 
     92 H92       -73.8982   25.3990  -73.3471 H         1 UNK         0.0743 
     93 H93       -75.3196   27.0344  -72.2756 H         1 UNK         0.0784 
     94 H94       -75.6494   27.8627  -73.7949 H         1 UNK         0.0784 
     95 H95       -76.3159   26.2681  -73.4990 H         1 UNK         0.0784 
     96 H96       -75.3803   26.0452  -75.6946 H         1 UNK         0.3213 
     97 H97       -73.3226   24.3169  -78.0258 H         1 UNK         0.0855 
     98 H98       -76.0266   23.6021  -76.7738 H         1 UNK         0.0814 
     99 H99       -74.6460   22.5254  -76.9230 H         1 UNK         0.0814 
    100 H100      -75.4707   23.0958  -78.3661 H         1 UNK         0.0814 
    101 H101      -75.8726   25.7814  -77.9530 H         1 UNK         0.3105 
    102 H102      -74.4495   28.8102  -79.1624 H         1 UNK         0.0547 
    103 H103      -74.7152   27.4758  -81.2598 H         1 UNK         0.0837 
    104 H104      -76.2225   26.8014  -80.6576 H         1 UNK         0.0837 
    105 H105      -76.0944   28.5282  -80.9968 H         1 UNK         0.0837 
    106 H106      -77.1527   28.0403  -78.7031 H         1 UNK         0.3020 
    107 H107      -77.3027   28.5774  -75.2225 H         1 UNK         0.1245 
    108 H108      -78.1767   30.5036  -77.4344 H         1 UNK         0.0781 
    109 H109      -77.2699   30.9343  -76.0101 H         1 UNK         0.0781 
    110 H110      -79.9608   31.9529  -73.6330 H         1 UNK         0.0836 
    111 H111      -78.4402   32.3119  -74.4001 H         1 UNK         0.0836 
    112 H112      -79.3917   28.2065  -77.0101 H         1 UNK         0.3022 
    113 H113      -80.5085   26.1656  -76.5680 H         1 UNK         0.0747 
    114 H114      -80.7732   25.2838  -78.9332 H         1 UNK         0.0793 
    115 H115      -79.0575   25.5885  -79.2037 H         1 UNK         0.0793 
    116 H116      -80.1453   26.9187  -78.8572 H         1 UNK         0.0793 
    117 H117      -80.1742   24.1650  -75.7982 H         1 UNK         0.3047 
    118 H118      -79.7767   21.2324  -77.2505 H         1 UNK         0.0822 
    119 H119      -78.0696   20.2533  -75.7021 H         1 UNK         0.0807 
    120 H120      -77.3472   21.8467  -75.4924 H         1 UNK         0.0807 
    121 H121      -77.3246   21.0699  -77.0659 H         1 UNK         0.0807 
    122 H122      -79.6212   22.0241  -74.4317 H         1 UNK         0.2946 
    123 H123      -82.9953   22.9634  -74.1799 H         1 UNK         0.1144 
    124 H124      -83.3469   20.4874  -74.0634 H         1 UNK         0.0793 
    125 H125      -83.2560   21.1888  -72.4571 H         1 UNK         0.0793 
    126 H126      -81.8757   20.3094  -73.1170 H         1 UNK         0.0793 
    127 H127      -80.9976   22.4212  -72.1986 H         1 UNK         0.2896 
@<TRIPOS>BOND
     1    1    2 1    
     2    1   67 1    
     3    1   68 1    
     4    1   69 1    
     5    2    3 2    
     6    2    4 am   BACKBONE|DICT|INTERRES
     7    4    5 1    
     8    4   70 1    
     9    5    6 1    
    10    5   65 1    
    11    5   71 1    
    12    6    7 1    
    13    6   72 1    
    14    6   73 1    
    15    7    8 1    
    16    8    9 1    
    17    8   74 1    
    18    8   75 1    
    19    9   10 ar   
    20    9   14 ar   
    21   10   11 ar   
    22   10   76 1    
    23   11   12 ar   
    24   11   48 1    
    25   12   13 ar   
    26   12   77 1    
    27   13   14 ar   
    28   13   15 1    
    29   14   78 1    
    30   15   16 1    
    31   15   79 1    
    32   15   80 1    
    33   16   17 1    
    34   17   18 1    
    35   17   81 1    
    36   17   82 1    
    37   18   19 1    
    38   18   22 1    
    39   18   83 1    
    40   19   20 am   BACKBONE|DICT|INTERRES
    41   19   21 2    
    42   20   84 1    
    43   20   85 1    
    44   22   23 am   BACKBONE|DICT|INTERRES
    45   22   86 1    
    46   23   24 2    
    47   23   25 1    
    48   25   26 1    
    49   25   27 1    
    50   25   87 1    
    51   26   88 1    
    52   26   89 1    
    53   26   90 1    
    54   27   28 am   BACKBONE|DICT|INTERRES
    55   27   91 1    
    56   28   29 2    
    57   28   30 1    
    58   30   31 1    
    59   30   32 1    
    60   30   92 1    
    61   31   93 1    
    62   31   94 1    
    63   31   95 1    
    64   32   33 am   BACKBONE|DICT|INTERRES
    65   32   96 1    
    66   33   34 2    
    67   33   35 1    
    68   35   36 1    
    69   35   37 1    
    70   35   97 1    
    71   36   98 1    
    72   36   99 1    
    73   36  100 1    
    74   37   38 am   BACKBONE|DICT|INTERRES
    75   37  101 1    
    76   38   39 2    
    77   38   40 1    
    78   40   41 1    
    79   40   42 1    
    80   40  102 1    
    81   41  103 1    
    82   41  104 1    
    83   41  105 1    
    84   42   43 am   BACKBONE|DICT|INTERRES
    85   42  106 1    
    86   43   44 2    
    87   43   45 1    
    88   45   46 1    
    89   45   49 1    
    90   45  107 1    
    91   46   47 1    
    92   46  108 1    
    93   46  109 1    
    94   47   48 1    
    95   48  110 1    
    96   48  111 1    
    97   49   50 am   BACKBONE|DICT|INTERRES
    98   49  112 1    
    99   50   51 2    
   100   50   52 1    
   101   52   53 1    
   102   52   54 1    
   103   52  113 1    
   104   53  114 1    
   105   53  115 1    
   106   53  116 1    
   107   54   55 am   BACKBONE|DICT|INTERRES
   108   54  117 1    
   109   55   56 2    
   110   55   57 1    
   111   57   58 1    
   112   57   59 1    
   113   57  118 1    
   114   58  119 1    
   115   58  120 1    
   116   58  121 1    
   117   59   60 am   BACKBONE|DICT|INTERRES
   118   59  122 1    
   119   60   61 2    
   120   60   62 1    
   121   62   63 1    
   122   62   64 1    
   123   62  123 1    
   124   63  124 1    
   125   63  125 1    
   126   63  126 1    
   127   64   65 am   BACKBONE|DICT|INTERRES
   128   64  127 1    
   129   65   66 2    
@<TRIPOS>SUBSTRUCTURE
     1 UNK         1 GROUP             0       ****    0 ROOT    
