@<TRIPOS>MOLECULE
3R135
127   129    1
SMALL
USER_CHARGES


@<TRIPOS>ATOM
      1 CA        -74.8598   22.9096  -71.3651 C.3       0 UNK        -0.1998 
      2 C         -76.3535   23.1845  -71.2773 C.2       0 UNK         0.4909 
      3 O         -77.0306   22.6328  -70.4100 O.2       0 UNK        -0.5240 
      4 N         -76.8719   24.0330  -72.1748 N.am      1 UNK        -0.4739 
      5 CA        -78.2903   24.4106  -72.2539 C.3       1 UNK         0.0864 
      6 C6        -78.4364   25.7822  -72.9575 C.3       11 UNK        -0.0881 
      7 S7        -80.0373   26.6047  -72.6612 S.3       11 UNK        -0.2682 
      8 C8        -79.6287   27.7573  -71.3097 C.3       11 UNK         0.0289 
      9 C9        -78.8408   28.9661  -71.7971 C.ar      11 UNK        -0.0687 
     10 C10       -79.4418   29.8915  -72.6532 C.ar      11 UNK        -0.0823 
     11 C11       -78.7279   31.0010  -73.1126 C.ar      11 UNK        -0.0830 
     12 C12       -77.4128   31.2007  -72.6831 C.ar      11 UNK        -0.1021 
     13 C13       -76.8002   30.2955  -71.8057 C.ar      11 UNK        -0.0753 
     14 C14       -77.5235   29.1760  -71.3771 C.ar      11 UNK        -0.0933 
     15 C15       -75.3741   30.4746  -71.2786 C.3       11 UNK         0.0166 
     16 S16       -74.4153   31.8675  -71.9782 S.3       11 UNK        -0.2615 
     17 C17       -72.7417   31.4525  -71.3700 C.3       11 UNK        -0.0865 
     18 CA        -71.6900   31.2607  -72.4978 C.3       10 UNK         0.0862 
     19 C         -70.3310   30.8029  -71.8879 C.2       10 UNK         0.5551 
     20 N         -69.8906   29.5667  -72.0984 N.am      10 UNK        -0.7319 
     21 O         -69.6703   31.5853  -71.2094 O.2       10 UNK        -0.5018 
     22 N         -72.1851   30.4060  -73.5889 N.am      10 UNK        -0.4509 
     23 C         -71.5986   30.2631  -74.7850 C.2       10 UNK         0.4899 
     24 O         -70.6191   30.9184  -75.1446 O.2       10 UNK        -0.4839 
     25 CA        -72.2070   29.2172  -75.7428 C.3       9 UNK         0.0222 
     26 CB        -71.1425   28.5619  -76.6475 C.3       9 UNK        -0.1966 
     27 N         -73.0197   28.1886  -75.0786 N.am      9 UNK        -0.4218 
     28 C         -72.6312   27.3108  -74.1387 C.2       9 UNK         0.5020 
     29 O         -71.4996   27.2769  -73.6526 O.2       9 UNK        -0.5274 
     30 CA        -73.6947   26.3208  -73.6381 C.3       8 UNK         0.0270 
     31 CB        -74.5784   26.9789  -72.5675 C.3       8 UNK        -0.1976 
     32 N         -74.5306   25.8382  -74.7402 N.am      8 UNK        -0.4313 
     33 C         -74.3297   24.6820  -75.3885 C.2       8 UNK         0.5041 
     34 O         -73.5081   23.8341  -75.0392 O.2       8 UNK        -0.5577 
     35 CA        -75.1907   24.4140  -76.6356 C.3       7 UNK         0.0284 
     36 CB        -76.4086   23.5507  -76.2739 C.3       7 UNK        -0.1958 
     37 N         -75.6352   25.6457  -77.2951 N.am      7 UNK        -0.4454 
     38 C         -74.8253   26.4402  -78.0124 C.2       7 UNK         0.5089 
     39 O         -73.6479   26.1692  -78.2484 O.2       7 UNK        -0.5125 
     40 CA        -75.3965   27.7673  -78.5506 C.3       6 UNK         0.0408 
     41 CB        -75.7301   27.6345  -80.0448 C.3       6 UNK        -0.1791 
     42 N         -76.5783   28.2681  -77.8430 N.am      6 UNK        -0.4762 
     43 C         -76.6382   28.5967  -76.5445 C.2       6 UNK         0.5007 
     44 O         -75.6881   28.4921  -75.7673 O.2       6 UNK        -0.5032 
     45 CA        -78.0117   29.0526  -76.0139 C.3       5 UNK         0.0783 
     46 C46       -78.1896   30.5765  -76.2430 C.3       11 UNK        -0.0857 
     47 S47       -79.8078   31.2001  -75.6661 S.3       11 UNK        -0.2512 
     48 C48       -79.3753   31.9830  -74.0787 C.3       11 UNK         0.0225 
     49 N         -79.1535   28.2841  -76.5369 N.am      5 UNK        -0.4615 
     50 C         -79.2680   26.9518  -76.6183 C.2       4 UNK         0.5053 
     51 O         -78.3396   26.1718  -76.3998 O.2       4 UNK        -0.5105 
     52 CA        -80.6680   26.4162  -76.9739 C.3       4 UNK         0.0263 
     53 CB        -81.2010   27.0073  -78.2982 C.3       4 UNK        -0.1981 
     54 N         -80.7304   24.9471  -76.9785 N.am      4 UNK        -0.4224 
     55 C         -80.1276   24.1044  -77.8308 C.2       3 UNK         0.4895 
     56 O         -79.4649   24.4533  -78.8097 O.2       3 UNK        -0.5091 
     57 CA        -80.2705   22.6149  -77.4948 C.3       3 UNK         0.0250 
     58 CB        -79.6446   21.6909  -78.5615 C.3       3 UNK        -0.1996 
     59 N         -79.6674   22.3532  -76.1873 N.am      3 UNK        -0.4254 
     60 C         -79.9955   21.3318  -75.3871 C.2       2 UNK         0.5004 
     61 O         -80.9053   20.5384  -75.6322 O.2       2 UNK        -0.5226 
     62 CA        -79.1573   21.1290  -74.1133 C.3       2 UNK         0.0269 
     63 CB        -78.0682   20.0715  -74.3599 C.3       2 UNK        -0.1926 
     64 N         -78.5231   22.3467  -73.5986 N.am      2 UNK        -0.4687 
     65 C         -79.1594   23.2990  -72.8989 C.2       1 UNK         0.5165 
     66 O         -80.3775   23.2921  -72.7184 O.2       1 UNK        -0.5079 
     67 H67       -74.6791   21.8373  -71.4371 H         1 UNK         0.0900 
     68 H68       -74.4062   23.3862  -72.2342 H         1 UNK         0.0900 
     69 H69       -74.3572   23.2810  -70.4724 H         1 UNK         0.0900 
     70 H70       -76.2635   24.4560  -72.8602 H         1 UNK         0.2959 
     71 H71       -78.6529   24.5255  -71.2296 H         1 UNK         0.1079 
     72 H72       -78.2924   25.6668  -74.0274 H         1 UNK         0.0837 
     73 H73       -77.6477   26.4610  -72.6316 H         1 UNK         0.0837 
     74 H74       -80.5574   28.1037  -70.8540 H         1 UNK         0.0685 
     75 H75       -79.0868   27.2217  -70.5286 H         1 UNK         0.0685 
     76 H76       -80.4605   29.7346  -72.9816 H         1 UNK         0.1434 
     77 H77       -76.8770   32.0691  -73.0375 H         1 UNK         0.1329 
     78 H78       -77.0594   28.4683  -70.7035 H         1 UNK         0.1335 
     79 H79       -75.4172   30.5993  -70.1936 H         1 UNK         0.0680 
     80 H80       -74.8214   29.5534  -71.4615 H         1 UNK         0.0680 
     81 H81       -72.4244   32.2548  -70.7008 H         1 UNK         0.1032 
     82 H82       -72.7929   30.5575  -70.7470 H         1 UNK         0.1032 
     83 H83       -71.5088   32.2437  -72.9370 H         1 UNK         0.0461 
     84 H84       -70.4295   28.9130  -72.6533 H         1 UNK         0.3453 
     85 H85       -69.0101   29.2816  -71.7002 H         1 UNK         0.3453 
     86 H86       -73.0008   29.8504  -73.3840 H         1 UNK         0.2984 
     87 H87       -72.8944   29.7664  -76.3878 H         1 UNK         0.0554 
     88 H88       -70.6305   29.3069  -77.2578 H         1 UNK         0.0847 
     89 H89       -71.5922   27.8414  -77.3307 H         1 UNK         0.0847 
     90 H90       -70.3824   28.0411  -76.0641 H         1 UNK         0.0847 
     91 H91       -74.0032   28.1976  -75.3481 H         1 UNK         0.3141 
     92 H92       -73.1684   25.4866  -73.1686 H         1 UNK         0.0743 
     93 H93       -75.1961   27.7754  -72.9850 H         1 UNK         0.0784 
     94 H94       -75.2394   26.2553  -72.0947 H         1 UNK         0.0784 
     95 H95       -73.9657   27.4074  -71.7734 H         1 UNK         0.0784 
     96 H96       -75.2009   26.4921  -75.1273 H         1 UNK         0.3213 
     97 H97       -74.5776   23.8509  -77.3429 H         1 UNK         0.0855 
     98 H98       -77.0442   24.0435  -75.5392 H         1 UNK         0.0814 
     99 H99       -76.0960   22.5942  -75.8529 H         1 UNK         0.0814 
    100 H100      -77.0116   23.3365  -77.1564 H         1 UNK         0.0814 
    101 H101      -76.6013   25.9275  -77.1379 H         1 UNK         0.3105 
    102 H102      -74.6119   28.5190  -78.4419 H         1 UNK         0.0547 
    103 H103      -74.8617   27.2941  -80.6108 H         1 UNK         0.0837 
    104 H104      -76.5321   26.9150  -80.2157 H         1 UNK         0.0837 
    105 H105      -76.0365   28.5896  -80.4716 H         1 UNK         0.0837 
    106 H106      -77.4281   28.3434  -78.3837 H         1 UNK         0.3020 
    107 H107      -77.9933   28.8700  -74.9375 H         1 UNK         0.1245 
    108 H108      -78.1107   30.8135  -77.3059 H         1 UNK         0.0781 
    109 H109      -77.3913   31.1359  -75.7508 H         1 UNK         0.0781 
    110 H110      -80.2808   32.3874  -73.6242 H         1 UNK         0.0836 
    111 H111      -78.7216   32.8357  -74.2697 H         1 UNK         0.0836 
    112 H112      -79.9720   28.8429  -76.7311 H         1 UNK         0.3022 
    113 H113      -81.3331   26.7368  -76.1704 H         1 UNK         0.0747 
    114 H114      -82.1574   26.5623  -78.5732 H         1 UNK         0.0793 
    115 H115      -81.3631   28.0825  -78.2178 H         1 UNK         0.0793 
    116 H116      -80.5086   26.8469  -79.1253 H         1 UNK         0.0793 
    117 H117      -81.2135   24.5393  -76.1899 H         1 UNK         0.3047 
    118 H118      -81.3415   22.4053  -77.4472 H         1 UNK         0.0822 
    119 H119      -78.5663   21.8357  -78.6369 H         1 UNK         0.0807 
    120 H120      -80.0712   21.8856  -79.5463 H         1 UNK         0.0807 
    121 H121      -79.8257   20.6400  -78.3355 H         1 UNK         0.0807 
    122 H122      -78.9339   22.9846  -75.8986 H         1 UNK         0.2946 
    123 H123      -79.8331   20.7449  -73.3451 H         1 UNK         0.1144 
    124 H124      -77.5170   19.8480  -73.4461 H         1 UNK         0.0793 
    125 H125      -77.3517   20.3959  -75.1155 H         1 UNK         0.0793 
    126 H126      -78.5056   19.1346  -74.7082 H         1 UNK         0.0793 
    127 H127      -77.5182   22.4023  -73.6682 H         1 UNK         0.2896 
@<TRIPOS>BOND
     1    1    2 1    
     2    1   67 1    
     3    1   68 1    
     4    1   69 1    
     5    2    3 2    
     6    2    4 am   BACKBONE|DICT|INTERRES
     7    4    5 1    
     8    4   70 1    
     9    5    6 1    
    10    5   65 1    
    11    5   71 1    
    12    6    7 1    
    13    6   72 1    
    14    6   73 1    
    15    7    8 1    
    16    8    9 1    
    17    8   74 1    
    18    8   75 1    
    19    9   10 ar   
    20    9   14 ar   
    21   10   11 ar   
    22   10   76 1    
    23   11   12 ar   
    24   11   48 1    
    25   12   13 ar   
    26   12   77 1    
    27   13   14 ar   
    28   13   15 1    
    29   14   78 1    
    30   15   16 1    
    31   15   79 1    
    32   15   80 1    
    33   16   17 1    
    34   17   18 1    
    35   17   81 1    
    36   17   82 1    
    37   18   19 1    
    38   18   22 1    
    39   18   83 1    
    40   19   20 am   BACKBONE|DICT|INTERRES
    41   19   21 2    
    42   20   84 1    
    43   20   85 1    
    44   22   23 am   BACKBONE|DICT|INTERRES
    45   22   86 1    
    46   23   24 2    
    47   23   25 1    
    48   25   26 1    
    49   25   27 1    
    50   25   87 1    
    51   26   88 1    
    52   26   89 1    
    53   26   90 1    
    54   27   28 am   BACKBONE|DICT|INTERRES
    55   27   91 1    
    56   28   29 2    
    57   28   30 1    
    58   30   31 1    
    59   30   32 1    
    60   30   92 1    
    61   31   93 1    
    62   31   94 1    
    63   31   95 1    
    64   32   33 am   BACKBONE|DICT|INTERRES
    65   32   96 1    
    66   33   34 2    
    67   33   35 1    
    68   35   36 1    
    69   35   37 1    
    70   35   97 1    
    71   36   98 1    
    72   36   99 1    
    73   36  100 1    
    74   37   38 am   BACKBONE|DICT|INTERRES
    75   37  101 1    
    76   38   39 2    
    77   38   40 1    
    78   40   41 1    
    79   40   42 1    
    80   40  102 1    
    81   41  103 1    
    82   41  104 1    
    83   41  105 1    
    84   42   43 am   BACKBONE|DICT|INTERRES
    85   42  106 1    
    86   43   44 2    
    87   43   45 1    
    88   45   46 1    
    89   45   49 1    
    90   45  107 1    
    91   46   47 1    
    92   46  108 1    
    93   46  109 1    
    94   47   48 1    
    95   48  110 1    
    96   48  111 1    
    97   49   50 am   BACKBONE|DICT|INTERRES
    98   49  112 1    
    99   50   51 2    
   100   50   52 1    
   101   52   53 1    
   102   52   54 1    
   103   52  113 1    
   104   53  114 1    
   105   53  115 1    
   106   53  116 1    
   107   54   55 am   BACKBONE|DICT|INTERRES
   108   54  117 1    
   109   55   56 2    
   110   55   57 1    
   111   57   58 1    
   112   57   59 1    
   113   57  118 1    
   114   58  119 1    
   115   58  120 1    
   116   58  121 1    
   117   59   60 am   BACKBONE|DICT|INTERRES
   118   59  122 1    
   119   60   61 2    
   120   60   62 1    
   121   62   63 1    
   122   62   64 1    
   123   62  123 1    
   124   63  124 1    
   125   63  125 1    
   126   63  126 1    
   127   64   65 am   BACKBONE|DICT|INTERRES
   128   64  127 1    
   129   65   66 2    
@<TRIPOS>SUBSTRUCTURE
     1 UNK         1 GROUP             0       ****    0 ROOT    
