@<TRIPOS>MOLECULE
3R135
127   129    1
SMALL
USER_CHARGES


@<TRIPOS>ATOM
      1 CA        -80.7173   21.4129  -72.7807 C.3       0 UNK        -0.1998 
      2 C         -80.9029   22.9195  -72.6916 C.2       0 UNK         0.4909 
      3 O         -80.1063   23.6552  -73.2745 O.2       0 UNK        -0.5240 
      4 N         -81.9662   23.3605  -71.9993 N.am      1 UNK        -0.4739 
      5 CA        -82.3985   24.7287  -71.6365 C.3       1 UNK         0.0864 
      6 C6        -81.5837   25.3431  -70.4631 C.3       11 UNK        -0.0881 
      7 S7        -79.9059   25.9215  -70.8904 S.3       11 UNK        -0.2682 
      8 C8        -80.1148   27.7296  -70.8151 C.3       11 UNK         0.0289 
      9 C9        -78.9881   28.4786  -71.5184 C.ar      11 UNK        -0.0687 
     10 C10       -79.2893   29.4479  -72.4810 C.ar      11 UNK        -0.0823 
     11 C11       -78.2715   30.1701  -73.1129 C.ar      11 UNK        -0.0830 
     12 C12       -76.9390   29.9031  -72.7827 C.ar      11 UNK        -0.1021 
     13 C13       -76.6214   28.9252  -71.8352 C.ar      11 UNK        -0.0753 
     14 C14       -77.6500   28.2288  -71.1947 C.ar      11 UNK        -0.0933 
     15 C15       -75.1670   28.6061  -71.5270 C.3       11 UNK         0.0166 
     16 S16       -74.3266   30.0130  -70.7341 S.3       11 UNK        -0.2615 
     17 C17       -72.6020   29.4169  -70.6689 C.3       11 UNK        -0.0865 
     18 CA        -71.7438   29.9435  -71.8510 C.3       10 UNK         0.0862 
     19 C         -70.2297   29.6523  -71.6242 C.2       10 UNK         0.5551 
     20 N         -69.5432   28.9178  -72.4926 N.am      10 UNK        -0.7319 
     21 O         -69.6624   30.1123  -70.6364 O.2       10 UNK        -0.5018 
     22 N         -72.2637   29.4606  -73.1377 N.am      10 UNK        -0.4509 
     23 C         -72.0670   30.0374  -74.3283 C.2       10 UNK         0.4899 
     24 O         -71.4863   31.1126  -74.4832 O.2       10 UNK        -0.4839 
     25 CA        -72.6136   29.2645  -75.5472 C.3       9 UNK         0.0222 
     26 CB        -71.9133   29.6524  -76.8658 C.3       9 UNK        -0.1966 
     27 N         -72.6050   27.8042  -75.3689 N.am      9 UNK        -0.4218 
     28 C         -71.5418   27.0265  -75.1069 C.2       9 UNK         0.5020 
     29 O         -70.3956   27.4532  -74.9624 O.2       9 UNK        -0.5274 
     30 CA        -71.8017   25.5241  -74.9444 C.3       8 UNK         0.0270 
     31 CB        -72.2826   25.2141  -73.5154 C.3       8 UNK        -0.1976 
     32 N         -72.7896   25.0422  -75.9141 N.am      8 UNK        -0.4313 
     33 C         -72.5033   24.2478  -76.9535 C.2       8 UNK         0.5041 
     34 O         -71.3729   23.8294  -77.2086 O.2       8 UNK        -0.5577 
     35 CA        -73.6700   23.8248  -77.8605 C.3       7 UNK         0.0284 
     36 CB        -74.4211   22.6268  -77.2569 C.3       7 UNK        -0.1958 
     37 N         -74.6191   24.8996  -78.1583 N.am      7 UNK        -0.4454 
     38 C         -74.3608   25.9317  -78.9751 C.2       7 UNK         0.5089 
     39 O         -73.2593   26.1498  -79.4797 O.2       7 UNK        -0.5125 
     40 CA        -75.5361   26.8630  -79.3089 C.3       6 UNK         0.0408 
     41 CB        -76.4825   26.1990  -80.3226 C.3       6 UNK        -0.1791 
     42 N         -76.2844   27.2157  -78.1046 N.am      6 UNK        -0.4762 
     43 C         -76.0956   28.3373  -77.3947 C.2       6 UNK         0.5007 
     44 O         -75.3373   29.2426  -77.7410 O.2       6 UNK        -0.5032 
     45 CA        -76.8598   28.4623  -76.0584 C.3       5 UNK         0.0783 
     46 C46       -78.1124   29.3693  -76.1904 C.3       11 UNK        -0.0857 
     47 S47       -77.7376   31.0901  -75.7191 S.3       11 UNK        -0.2512 
     48 C48       -78.6258   31.2509  -74.1318 C.3       11 UNK         0.0225 
     49 N         -77.1889   27.1602  -75.4731 N.am      5 UNK        -0.4615 
     50 C         -76.2796   26.2986  -74.9971 C.2       4 UNK         0.5053 
     51 O         -75.0705   26.5284  -74.9866 O.2       4 UNK        -0.5105 
     52 CA        -76.7770   24.9294  -74.5042 C.3       4 UNK         0.0263 
     53 CB        -76.9636   24.9614  -72.9829 C.3       4 UNK        -0.1981 
     54 N         -78.0171   24.4797  -75.1449 N.am      4 UNK        -0.4224 
     55 C         -78.1758   24.3027  -76.4661 C.2       3 UNK         0.4895 
     56 O         -77.2719   24.4587  -77.2884 O.2       3 UNK        -0.5091 
     57 CA        -79.5878   23.9588  -76.9667 C.3       3 UNK         0.0250 
     58 CB        -79.7978   22.4369  -76.9633 C.3       3 UNK        -0.1996 
     59 N         -80.6604   24.6027  -76.2014 N.am      3 UNK        -0.4254 
     60 C         -80.8187   25.9258  -76.0332 C.2       2 UNK         0.5004 
     61 O         -80.0709   26.7750  -76.5161 O.2       2 UNK        -0.5226 
     62 CA        -81.9753   26.3631  -75.1286 C.3       2 UNK         0.0269 
     63 CB        -83.3193   26.3082  -75.8793 C.3       2 UNK        -0.1926 
     64 N         -81.9925   25.5144  -73.9405 N.am      2 UNK        -0.4687 
     65 C         -82.6317   25.7356  -72.7920 C.2       1 UNK         0.5165 
     66 O         -83.3911   26.6892  -72.6136 O.2       1 UNK        -0.5079 
     67 H67       -80.8373   21.0798  -73.8109 H         1 UNK         0.0900 
     68 H68       -79.7154   21.1414  -72.4493 H         1 UNK         0.0900 
     69 H69       -81.4352   20.8744  -72.1624 H         1 UNK         0.0900 
     70 H70       -82.5745   22.6491  -71.6176 H         1 UNK         0.2959 
     71 H71       -83.4025   24.5678  -71.2396 H         1 UNK         0.1079 
     72 H72       -81.4852   24.6059  -69.6649 H         1 UNK         0.0837 
     73 H73       -82.1430   26.1679  -70.0176 H         1 UNK         0.0837 
     74 H74       -81.0759   27.9928  -71.2597 H         1 UNK         0.0685 
     75 H75       -80.1574   28.0425  -69.7712 H         1 UNK         0.0685 
     76 H76       -80.3223   29.6513  -72.7286 H         1 UNK         0.1434 
     77 H77       -76.1446   30.4545  -73.2669 H         1 UNK         0.1329 
     78 H78       -77.4121   27.4785  -70.4532 H         1 UNK         0.1335 
     79 H79       -75.0900   27.7319  -70.8785 H         1 UNK         0.0680 
     80 H80       -74.6666   28.3447  -72.4593 H         1 UNK         0.0680 
     81 H81       -72.1866   29.7560  -69.7178 H         1 UNK         0.1032 
     82 H82       -72.5834   28.3262  -70.6287 H         1 UNK         0.1032 
     83 H83       -71.8302   31.0319  -71.8538 H         1 UNK         0.0461 
     84 H84       -69.9779   28.5366  -73.3259 H         1 UNK         0.3453 
     85 H85       -68.5646   28.7496  -72.3227 H         1 UNK         0.3453 
     86 H86       -72.7323   28.5690  -73.1177 H         1 UNK         0.2984 
     87 H87       -73.6614   29.5531  -75.6321 H         1 UNK         0.0554 
     88 H88       -72.0301   30.7165  -77.0738 H         1 UNK         0.0847 
     89 H89       -72.3393   29.1117  -77.7114 H         1 UNK         0.0847 
     90 H90       -70.8442   29.4406  -76.8341 H         1 UNK         0.0847 
     91 H91       -73.5211   27.3588  -75.3759 H         1 UNK         0.3141 
     92 H92       -70.8466   25.0143  -75.0874 H         1 UNK         0.0743 
     93 H93       -73.2282   25.7035  -73.2814 H         1 UNK         0.0784 
     94 H94       -72.4188   24.1423  -73.3708 H         1 UNK         0.0784 
     95 H95       -71.5517   25.5490  -72.7779 H         1 UNK         0.0784 
     96 H96       -73.7420   25.3692  -75.7874 H         1 UNK         0.3213 
     97 H97       -73.2382   23.4976  -78.8092 H         1 UNK         0.0855 
     98 H98       -74.8928   22.8784  -76.3078 H         1 UNK         0.0814 
     99 H99       -73.7415   21.7938  -77.0719 H         1 UNK         0.0814 
    100 H100      -75.1990   22.2664  -77.9303 H         1 UNK         0.0814 
    101 H101      -75.5710   24.7734  -77.8179 H         1 UNK         0.3105 
    102 H102      -75.1300   27.7627  -79.7764 H         1 UNK         0.0547 
    103 H103      -75.9479   25.9262  -81.2335 H         1 UNK         0.0837 
    104 H104      -76.9354   25.2896  -79.9260 H         1 UNK         0.0837 
    105 H105      -77.2882   26.8742  -80.6107 H         1 UNK         0.0837 
    106 H106      -76.9033   26.5048  -77.7321 H         1 UNK         0.3020 
    107 H107      -76.1613   28.9282  -75.3602 H         1 UNK         0.1245 
    108 H108      -78.9207   29.0105  -75.5518 H         1 UNK         0.0781 
    109 H109      -78.5262   29.3546  -77.2009 H         1 UNK         0.0781 
    110 H110      -79.6974   31.2505  -74.3380 H         1 UNK         0.0836 
    111 H111      -78.3988   32.2266  -73.7006 H         1 UNK         0.0836 
    112 H112      -78.1642   26.8881  -75.5061 H         1 UNK         0.3022 
    113 H113      -76.0034   24.1962  -74.7346 H         1 UNK         0.0747 
    114 H114      -77.2847   23.9941  -72.5961 H         1 UNK         0.0793 
    115 H115      -76.0336   25.2252  -72.4774 H         1 UNK         0.0793 
    116 H116      -77.7100   25.7015  -72.6981 H         1 UNK         0.0793 
    117 H117      -78.8053   24.2937  -74.5280 H         1 UNK         0.3047 
    118 H118      -79.6626   24.3151  -77.9962 H         1 UNK         0.0822 
    119 H119      -80.7599   22.1664  -77.3987 H         1 UNK         0.0807 
    120 H120      -79.7568   22.0266  -75.9535 H         1 UNK         0.0807 
    121 H121      -79.0263   21.9358  -77.5500 H         1 UNK         0.0807 
    122 H122      -81.3328   23.9854  -75.7707 H         1 UNK         0.2946 
    123 H123      -81.7825   27.3919  -74.8157 H         1 UNK         0.1144 
    124 H124      -84.1321   26.7087  -75.2737 H         1 UNK         0.0793 
    125 H125      -83.5844   25.2888  -76.1615 H         1 UNK         0.0793 
    126 H126      -83.2785   26.9017  -76.7937 H         1 UNK         0.0793 
    127 H127      -81.2938   24.7725  -73.9071 H         1 UNK         0.2896 
@<TRIPOS>BOND
     1    1    2 1    
     2    1   67 1    
     3    1   68 1    
     4    1   69 1    
     5    2    3 2    
     6    2    4 am   BACKBONE|DICT|INTERRES
     7    4    5 1    
     8    4   70 1    
     9    5    6 1    
    10    5   65 1    
    11    5   71 1    
    12    6    7 1    
    13    6   72 1    
    14    6   73 1    
    15    7    8 1    
    16    8    9 1    
    17    8   74 1    
    18    8   75 1    
    19    9   10 ar   
    20    9   14 ar   
    21   10   11 ar   
    22   10   76 1    
    23   11   12 ar   
    24   11   48 1    
    25   12   13 ar   
    26   12   77 1    
    27   13   14 ar   
    28   13   15 1    
    29   14   78 1    
    30   15   16 1    
    31   15   79 1    
    32   15   80 1    
    33   16   17 1    
    34   17   18 1    
    35   17   81 1    
    36   17   82 1    
    37   18   19 1    
    38   18   22 1    
    39   18   83 1    
    40   19   20 am   BACKBONE|DICT|INTERRES
    41   19   21 2    
    42   20   84 1    
    43   20   85 1    
    44   22   23 am   BACKBONE|DICT|INTERRES
    45   22   86 1    
    46   23   24 2    
    47   23   25 1    
    48   25   26 1    
    49   25   27 1    
    50   25   87 1    
    51   26   88 1    
    52   26   89 1    
    53   26   90 1    
    54   27   28 am   BACKBONE|DICT|INTERRES
    55   27   91 1    
    56   28   29 2    
    57   28   30 1    
    58   30   31 1    
    59   30   32 1    
    60   30   92 1    
    61   31   93 1    
    62   31   94 1    
    63   31   95 1    
    64   32   33 am   BACKBONE|DICT|INTERRES
    65   32   96 1    
    66   33   34 2    
    67   33   35 1    
    68   35   36 1    
    69   35   37 1    
    70   35   97 1    
    71   36   98 1    
    72   36   99 1    
    73   36  100 1    
    74   37   38 am   BACKBONE|DICT|INTERRES
    75   37  101 1    
    76   38   39 2    
    77   38   40 1    
    78   40   41 1    
    79   40   42 1    
    80   40  102 1    
    81   41  103 1    
    82   41  104 1    
    83   41  105 1    
    84   42   43 am   BACKBONE|DICT|INTERRES
    85   42  106 1    
    86   43   44 2    
    87   43   45 1    
    88   45   46 1    
    89   45   49 1    
    90   45  107 1    
    91   46   47 1    
    92   46  108 1    
    93   46  109 1    
    94   47   48 1    
    95   48  110 1    
    96   48  111 1    
    97   49   50 am   BACKBONE|DICT|INTERRES
    98   49  112 1    
    99   50   51 2    
   100   50   52 1    
   101   52   53 1    
   102   52   54 1    
   103   52  113 1    
   104   53  114 1    
   105   53  115 1    
   106   53  116 1    
   107   54   55 am   BACKBONE|DICT|INTERRES
   108   54  117 1    
   109   55   56 2    
   110   55   57 1    
   111   57   58 1    
   112   57   59 1    
   113   57  118 1    
   114   58  119 1    
   115   58  120 1    
   116   58  121 1    
   117   59   60 am   BACKBONE|DICT|INTERRES
   118   59  122 1    
   119   60   61 2    
   120   60   62 1    
   121   62   63 1    
   122   62   64 1    
   123   62  123 1    
   124   63  124 1    
   125   63  125 1    
   126   63  126 1    
   127   64   65 am   BACKBONE|DICT|INTERRES
   128   64  127 1    
   129   65   66 2    
@<TRIPOS>SUBSTRUCTURE
     1 UNK         1 GROUP             0       ****    0 ROOT    
