@<TRIPOS>MOLECULE
3R135
127   129    1
SMALL
USER_CHARGES


@<TRIPOS>ATOM
      1 CA        -79.8272   22.3414  -71.7167 C.3       0 UNK        -0.1998 
      2 C         -80.6160   23.3796  -72.4994 C.2       0 UNK         0.4909 
      3 O         -81.2379   23.0343  -73.5035 O.2       0 UNK        -0.5240 
      4 N         -80.5733   24.6424  -72.0506 N.am      1 UNK        -0.4739 
      5 CA        -81.2714   25.8245  -72.5795 C.3       1 UNK         0.0864 
      6 C6        -80.7817   27.1230  -71.8894 C.3       11 UNK        -0.0881 
      7 S7        -80.7113   27.0673  -70.0664 S.3       11 UNK        -0.2682 
      8 C8        -80.1503   28.7633  -69.6739 C.3       11 UNK         0.0289 
      9 C9        -79.0153   29.2295  -70.5796 C.ar      11 UNK        -0.0687 
     10 C10       -79.2854   30.0845  -71.6536 C.ar      11 UNK        -0.0823 
     11 C11       -78.2729   30.4645  -72.5400 C.ar      11 UNK        -0.0830 
     12 C12       -76.9708   30.0012  -72.3233 C.ar      11 UNK        -0.1021 
     13 C13       -76.6866   29.1488  -71.2517 C.ar      11 UNK        -0.0753 
     14 C14       -77.7111   28.7685  -70.3794 C.ar      11 UNK        -0.0933 
     15 C15       -75.2729   28.6298  -71.0551 C.3       11 UNK         0.0166 
     16 S16       -74.2125   29.9097  -70.3183 S.3       11 UNK        -0.2615 
     17 C17       -72.5616   29.1592  -70.5102 C.3       11 UNK        -0.0865 
     18 CA        -71.8023   29.7296  -71.7361 C.3       10 UNK         0.0862 
     19 C         -70.3267   29.2541  -71.7405 C.2       10 UNK         0.5551 
     20 N         -69.3811   30.1449  -71.4758 N.am      10 UNK        -0.7319 
     21 O         -70.0421   28.0742  -71.9368 O.2       10 UNK        -0.5018 
     22 N         -72.4631   29.3605  -72.9932 N.am      10 UNK        -0.4509 
     23 C         -72.3321   30.0138  -74.1537 C.2       10 UNK         0.4899 
     24 O         -71.7208   31.0765  -74.2782 O.2       10 UNK        -0.4839 
     25 CA        -73.0032   29.3523  -75.3758 C.3       9 UNK         0.0222 
     26 CB        -72.5521   29.9652  -76.7189 C.3       9 UNK        -0.1966 
     27 N         -72.8430   27.8908  -75.3847 N.am      9 UNK        -0.4218 
     28 C         -71.6853   27.2098  -75.4119 C.2       9 UNK         0.5020 
     29 O         -70.5719   27.7284  -75.5025 O.2       9 UNK        -0.5274 
     30 CA        -71.7914   25.6842  -75.3183 C.3       8 UNK         0.0270 
     31 CB        -72.1077   25.2420  -73.8777 C.3       8 UNK        -0.1976 
     32 N         -72.8077   25.1677  -76.2375 N.am      8 UNK        -0.4313 
     33 C         -72.5350   24.7076  -77.4650 C.2       8 UNK         0.5041 
     34 O         -71.4063   24.6914  -77.9583 O.2       8 UNK        -0.5577 
     35 CA        -73.7064   24.1320  -78.2717 C.3       7 UNK         0.0284 
     36 CB        -74.0993   22.7453  -77.7349 C.3       7 UNK        -0.1958 
     37 N         -74.8826   25.0021  -78.2973 N.am      7 UNK        -0.4454 
     38 C         -75.0020   26.0838  -79.0798 C.2       7 UNK         0.5089 
     39 O         -74.0909   26.5311  -79.7768 O.2       7 UNK        -0.5125 
     40 CA        -76.3826   26.7588  -79.1242 C.3       6 UNK         0.0408 
     41 CB        -77.4033   25.8768  -79.8628 C.3       6 UNK        -0.1791 
     42 N         -76.8807   27.0664  -77.7861 N.am      6 UNK        -0.4762 
     43 C         -76.5424   28.1581  -77.0849 C.2       6 UNK         0.5007 
     44 O         -75.8219   29.0526  -77.5263 O.2       6 UNK        -0.5032 
     45 CA        -77.0787   28.2590  -75.6392 C.3       5 UNK         0.0783 
     46 C46       -78.3131   29.1934  -75.5358 C.3       11 UNK        -0.0857 
     47 S47       -77.8083   30.9323  -75.2943 S.3       11 UNK        -0.2512 
     48 C48       -78.6108   31.3822  -73.7143 C.3       11 UNK         0.0225 
     49 N         -77.3323   26.9432  -75.0476 N.am      5 UNK        -0.4615 
     50 C         -76.3668   26.0708  -74.7353 C.2       4 UNK         0.5053 
     51 O         -75.1676   26.2839  -74.9219 O.2       4 UNK        -0.5105 
     52 CA        -76.8082   24.7269  -74.1437 C.3       4 UNK         0.0263 
     53 CB        -77.1069   24.8852  -72.6448 C.3       4 UNK        -0.1981 
     54 N         -77.9584   24.1289  -74.8323 N.am      4 UNK        -0.4224 
     55 C         -77.9525   23.7122  -76.1076 C.2       3 UNK         0.4895 
     56 O         -77.0064   23.8802  -76.8742 O.2       3 UNK        -0.5091 
     57 CA        -79.2091   22.9902  -76.6172 C.3       3 UNK         0.0250 
     58 CB        -79.2827   21.5595  -76.0592 C.3       3 UNK        -0.1996 
     59 N         -80.4272   23.7215  -76.2743 N.am      3 UNK        -0.4254 
     60 C         -80.8810   24.7789  -76.9636 C.2       2 UNK         0.5004 
     61 O         -80.3869   25.1719  -78.0207 O.2       2 UNK        -0.5226 
     62 CA        -82.0659   25.5564  -76.3572 C.3       2 UNK         0.0269 
     63 CB        -83.3987   25.0172  -76.9009 C.3       2 UNK        -0.1926 
     64 N         -82.0996   25.5476  -74.8889 N.am      2 UNK        -0.4687 
     65 C         -81.1021   25.9813  -74.1058 C.2       1 UNK         0.5165 
     66 O         -80.0525   26.4529  -74.5477 O.2       1 UNK        -0.5079 
     67 H67       -79.0578   21.8978  -72.3478 H         1 UNK         0.0900 
     68 H68       -80.4906   21.5453  -71.3796 H         1 UNK         0.0900 
     69 H69       -79.3427   22.7713  -70.8401 H         1 UNK         0.0900 
     70 H70       -80.0444   24.8353  -71.2114 H         1 UNK         0.2959 
     71 H71       -82.3332   25.6995  -72.3588 H         1 UNK         0.1079 
     72 H72       -79.7711   27.3543  -72.2306 H         1 UNK         0.0837 
     73 H73       -81.4081   27.9671  -72.1850 H         1 UNK         0.0837 
     74 H74       -79.8277   28.7993  -68.6324 H         1 UNK         0.0685 
     75 H75       -81.0012   29.4418  -69.7522 H         1 UNK         0.0685 
     76 H76       -80.2962   30.4347  -71.8132 H         1 UNK         0.1434 
     77 H77       -76.1744   30.2989  -72.9914 H         1 UNK         0.1329 
     78 H78       -77.5006   28.0988  -69.5566 H         1 UNK         0.1335 
     79 H79       -74.8712   28.3169  -72.0193 H         1 UNK         0.0680 
     80 H80       -75.2697   27.7450  -70.4163 H         1 UNK         0.0680 
     81 H81       -72.0063   29.3674  -69.5934 H         1 UNK         0.1032 
     82 H82       -72.6449   28.0720  -70.5679 H         1 UNK         0.1032 
     83 H83       -71.8124   30.8190  -71.6539 H         1 UNK         0.0461 
     84 H84       -68.4181   29.8475  -71.4589 H         1 UNK         0.3453 
     85 H85       -69.6095   31.1132  -71.3096 H         1 UNK         0.3453 
     86 H86       -72.9336   28.4694  -72.9990 H         1 UNK         0.2984 
     87 H87       -74.0712   29.5439  -75.2729 H         1 UNK         0.0554 
     88 H88       -72.8037   31.0253  -76.7674 H         1 UNK         0.0847 
     89 H89       -73.0447   29.4782  -77.5607 H         1 UNK         0.0847 
     90 H90       -71.4749   29.8792  -76.8648 H         1 UNK         0.0847 
     91 H91       -73.7005   27.3496  -75.2895 H         1 UNK         0.3141 
     92 H92       -70.8144   25.2682  -75.5754 H         1 UNK         0.0743 
     93 H93       -71.3462   25.6063  -73.1862 H         1 UNK         0.0784 
     94 H94       -73.0683   25.6189  -73.5270 H         1 UNK         0.0784 
     95 H95       -72.1261   24.1552  -73.7946 H         1 UNK         0.0784 
     96 H96       -73.7718   25.2143  -75.9259 H         1 UNK         0.3213 
     97 H97       -73.3626   23.9996  -79.3002 H         1 UNK         0.0855 
     98 H98       -74.4654   22.7952  -76.7087 H         1 UNK         0.0814 
     99 H99       -73.2455   22.0668  -77.7439 H         1 UNK         0.0814 
    100 H100      -74.8808   22.2916  -78.3449 H         1 UNK         0.0814 
    101 H101      -75.6917   24.6844  -77.7637 H         1 UNK         0.3105 
    102 H102      -76.2837   27.6884  -79.6889 H         1 UNK         0.0547 
    103 H103      -77.5825   24.9337  -79.3456 H         1 UNK         0.0837 
    104 H104      -78.3628   26.3840  -79.9642 H         1 UNK         0.0837 
    105 H105      -77.0559   25.6364  -80.8683 H         1 UNK         0.0837 
    106 H106      -77.4530   26.3641  -77.3379 H         1 UNK         0.3020 
    107 H107      -76.2744   28.6957  -75.0445 H         1 UNK         0.1245 
    108 H108      -78.9415   28.9005  -74.6939 H         1 UNK         0.0781 
    109 H109      -78.9560   29.1175  -76.4149 H         1 UNK         0.0781 
    110 H110      -78.3191   32.4002  -73.4533 H         1 UNK         0.0836 
    111 H111      -79.6890   31.4064  -73.8808 H         1 UNK         0.0836 
    112 H112      -78.3065   26.7012  -74.8679 H         1 UNK         0.3022 
    113 H113      -75.9697   24.0351  -74.2491 H         1 UNK         0.0747 
    114 H114      -76.2443   25.2970  -72.1187 H         1 UNK         0.0793 
    115 H115      -77.3365   23.9270  -72.1803 H         1 UNK         0.0793 
    116 H116      -77.9430   25.5623  -72.4681 H         1 UNK         0.0793 
    117 H117      -78.8044   24.0143  -74.2963 H         1 UNK         0.3047 
    118 H118      -79.1326   22.9187  -77.7046 H         1 UNK         0.0822 
    119 H119      -78.3865   20.9940  -76.3188 H         1 UNK         0.0807 
    120 H120      -80.1358   21.0195  -76.4704 H         1 UNK         0.0807 
    121 H121      -79.3732   21.5466  -74.9728 H         1 UNK         0.0807 
    122 H122      -80.8860   23.4757  -75.4009 H         1 UNK         0.2946 
    123 H123      -81.9589   26.5961  -76.6752 H         1 UNK         0.1144 
    124 H124      -83.4098   25.0325  -77.9919 H         1 UNK         0.0793 
    125 H125      -84.2404   25.6218  -76.5622 H         1 UNK         0.0793 
    126 H126      -83.5751   23.9874  -76.5873 H         1 UNK         0.0793 
    127 H127      -82.9073   25.1211  -74.4571 H         1 UNK         0.2896 
@<TRIPOS>BOND
     1    1    2 1    
     2    1   67 1    
     3    1   68 1    
     4    1   69 1    
     5    2    3 2    
     6    2    4 am   BACKBONE|DICT|INTERRES
     7    4    5 1    
     8    4   70 1    
     9    5    6 1    
    10    5   65 1    
    11    5   71 1    
    12    6    7 1    
    13    6   72 1    
    14    6   73 1    
    15    7    8 1    
    16    8    9 1    
    17    8   74 1    
    18    8   75 1    
    19    9   10 ar   
    20    9   14 ar   
    21   10   11 ar   
    22   10   76 1    
    23   11   12 ar   
    24   11   48 1    
    25   12   13 ar   
    26   12   77 1    
    27   13   14 ar   
    28   13   15 1    
    29   14   78 1    
    30   15   16 1    
    31   15   79 1    
    32   15   80 1    
    33   16   17 1    
    34   17   18 1    
    35   17   81 1    
    36   17   82 1    
    37   18   19 1    
    38   18   22 1    
    39   18   83 1    
    40   19   20 am   BACKBONE|DICT|INTERRES
    41   19   21 2    
    42   20   84 1    
    43   20   85 1    
    44   22   23 am   BACKBONE|DICT|INTERRES
    45   22   86 1    
    46   23   24 2    
    47   23   25 1    
    48   25   26 1    
    49   25   27 1    
    50   25   87 1    
    51   26   88 1    
    52   26   89 1    
    53   26   90 1    
    54   27   28 am   BACKBONE|DICT|INTERRES
    55   27   91 1    
    56   28   29 2    
    57   28   30 1    
    58   30   31 1    
    59   30   32 1    
    60   30   92 1    
    61   31   93 1    
    62   31   94 1    
    63   31   95 1    
    64   32   33 am   BACKBONE|DICT|INTERRES
    65   32   96 1    
    66   33   34 2    
    67   33   35 1    
    68   35   36 1    
    69   35   37 1    
    70   35   97 1    
    71   36   98 1    
    72   36   99 1    
    73   36  100 1    
    74   37   38 am   BACKBONE|DICT|INTERRES
    75   37  101 1    
    76   38   39 2    
    77   38   40 1    
    78   40   41 1    
    79   40   42 1    
    80   40  102 1    
    81   41  103 1    
    82   41  104 1    
    83   41  105 1    
    84   42   43 am   BACKBONE|DICT|INTERRES
    85   42  106 1    
    86   43   44 2    
    87   43   45 1    
    88   45   46 1    
    89   45   49 1    
    90   45  107 1    
    91   46   47 1    
    92   46  108 1    
    93   46  109 1    
    94   47   48 1    
    95   48  110 1    
    96   48  111 1    
    97   49   50 am   BACKBONE|DICT|INTERRES
    98   49  112 1    
    99   50   51 2    
   100   50   52 1    
   101   52   53 1    
   102   52   54 1    
   103   52  113 1    
   104   53  114 1    
   105   53  115 1    
   106   53  116 1    
   107   54   55 am   BACKBONE|DICT|INTERRES
   108   54  117 1    
   109   55   56 2    
   110   55   57 1    
   111   57   58 1    
   112   57   59 1    
   113   57  118 1    
   114   58  119 1    
   115   58  120 1    
   116   58  121 1    
   117   59   60 am   BACKBONE|DICT|INTERRES
   118   59  122 1    
   119   60   61 2    
   120   60   62 1    
   121   62   63 1    
   122   62   64 1    
   123   62  123 1    
   124   63  124 1    
   125   63  125 1    
   126   63  126 1    
   127   64   65 am   BACKBONE|DICT|INTERRES
   128   64  127 1    
   129   65   66 2    
@<TRIPOS>SUBSTRUCTURE
     1 UNK         1 GROUP             0       ****    0 ROOT    
