@<TRIPOS>MOLECULE
3R135
127   129    1
SMALL
USER_CHARGES


@<TRIPOS>ATOM
      1 CA        -80.3201   27.0823  -78.0024 C.3       0 UNK        -0.1998 
      2 C         -80.1328   27.2020  -76.4979 C.2       0 UNK         0.4909 
      3 O         -79.0061   27.4056  -76.0474 O.2       0 UNK        -0.5240 
      4 N         -81.2246   27.0732  -75.7356 N.am      1 UNK        -0.4739 
      5 CA        -81.2534   27.0534  -74.2709 C.3       1 UNK         0.0864 
      6 C6        -82.0990   28.2191  -73.6961 C.3       11 UNK        -0.0881 
      7 S7        -81.2953   29.8479  -73.8732 S.3       11 UNK        -0.2682 
      8 C8        -80.9785   30.3070  -72.1354 C.3       11 UNK         0.0289 
      9 C9        -79.6176   29.8211  -71.6553 C.ar      11 UNK        -0.0687 
     10 C10       -79.3992   28.4678  -71.3834 C.ar      11 UNK        -0.0823 
     11 C11       -78.1370   28.0189  -70.9874 C.ar      11 UNK        -0.0830 
     12 C12       -77.1089   28.9469  -70.7911 C.ar      11 UNK        -0.1021 
     13 C13       -77.3096   30.3088  -71.0531 C.ar      11 UNK        -0.0753 
     14 C14       -78.5694   30.7314  -71.4885 C.ar      11 UNK        -0.0933 
     15 C15       -76.2121   31.3641  -70.8821 C.3       11 UNK         0.0166 
     16 S16       -74.5003   30.7406  -70.7368 S.3       11 UNK        -0.2615 
     17 C17       -74.2197   30.0547  -72.4053 C.3       11 UNK        -0.0865 
     18 CA        -72.9030   29.2355  -72.5092 C.3       10 UNK         0.0862 
     19 C         -72.9978   27.7907  -71.9287 C.2       10 UNK         0.5551 
     20 N         -72.2307   26.8308  -72.4341 N.am      10 UNK        -0.7319 
     21 O         -73.7639   27.5237  -71.0074 O.2       10 UNK        -0.5018 
     22 N         -72.4212   29.2232  -73.8948 N.am      10 UNK        -0.4509 
     23 C         -71.3100   29.7980  -74.3626 C.2       10 UNK         0.4899 
     24 O         -70.5666   30.5102  -73.6857 O.2       10 UNK        -0.4839 
     25 CA        -70.9778   29.5188  -75.8440 C.3       9 UNK         0.0222 
     26 CB        -69.5060   29.8230  -76.1948 C.3       9 UNK        -0.1966 
     27 N         -71.3441   28.1643  -76.2842 N.am      9 UNK        -0.4218 
     28 C         -70.9094   26.9944  -75.7862 C.2       9 UNK         0.5020 
     29 O         -70.1276   26.9121  -74.8373 O.2       9 UNK        -0.5274 
     30 CA        -71.4483   25.6888  -76.4121 C.3       8 UNK         0.0270 
     31 CB        -71.9934   24.7383  -75.3313 C.3       8 UNK        -0.1976 
     32 N         -72.4952   25.8966  -77.4146 N.am      8 UNK        -0.4313 
     33 C         -72.2976   26.2740  -78.6841 C.2       8 UNK         0.5041 
     34 O         -71.1860   26.4419  -79.1854 O.2       8 UNK        -0.5577 
     35 CA        -73.5581   26.5577  -79.5181 C.3       7 UNK         0.0284 
     36 CB        -74.0773   25.2678  -80.1708 C.3       7 UNK        -0.1958 
     37 N         -74.6229   27.1752  -78.7200 N.am      7 UNK        -0.4454 
     38 C         -74.5822   28.4310  -78.2507 C.2       7 UNK         0.5089 
     39 O         -73.6583   29.2142  -78.4713 O.2       7 UNK        -0.5125 
     40 CA        -75.7456   28.8733  -77.3452 C.3       6 UNK         0.0408 
     41 CB        -76.9491   29.3231  -78.1876 C.3       6 UNK        -0.1791 
     42 N         -76.1720   27.8381  -76.4005 N.am      6 UNK        -0.4762 
     43 C         -75.3928   27.2935  -75.4553 C.2       6 UNK         0.5007 
     44 O         -74.2220   27.6140  -75.2641 O.2       6 UNK        -0.5032 
     45 CA        -76.0209   26.1785  -74.6029 C.3       5 UNK         0.0783 
     46 C46       -76.8684   26.8144  -73.4753 C.3       11 UNK        -0.0857 
     47 S47       -77.8269   25.6525  -72.4411 S.3       11 UNK        -0.2512 
     48 C48       -77.8580   26.5268  -70.8320 C.3       11 UNK         0.0225 
     49 N         -76.7569   25.2137  -75.4255 N.am      5 UNK        -0.4615 
     50 C         -76.2312   24.4532  -76.3967 C.2       4 UNK         0.5053 
     51 O         -75.0616   24.5525  -76.7726 O.2       4 UNK        -0.5105 
     52 CA        -77.1580   23.3942  -77.0352 C.3       4 UNK         0.0263 
     53 CB        -76.4132   22.4565  -78.0034 C.3       4 UNK        -0.1981 
     54 N         -77.8330   22.5802  -76.0175 N.am      4 UNK        -0.4224 
     55 C         -78.8975   22.9843  -75.3155 C.2       3 UNK         0.4895 
     56 O         -79.4571   24.0626  -75.5263 O.2       3 UNK        -0.5091 
     57 CA        -79.3820   22.0899  -74.1619 C.3       3 UNK         0.0250 
     58 CB        -78.2323   21.3839  -73.4161 C.3       3 UNK        -0.1996 
     59 N         -80.0904   22.9597  -73.2317 N.am      3 UNK        -0.4254 
     60 C         -81.3082   22.7658  -72.7215 C.2       2 UNK         0.5004 
     61 O         -81.9364   21.7095  -72.7994 O.2       2 UNK        -0.5226 
     62 CA        -81.9385   23.9872  -72.0283 C.3       2 UNK         0.0269 
     63 CB        -81.6147   23.9806  -70.5254 C.3       2 UNK        -0.1926 
     64 N         -81.4914   25.2600  -72.6122 N.am      2 UNK        -0.4687 
     65 C         -81.8600   25.7106  -73.8214 C.2       1 UNK         0.5165 
     66 O         -82.6790   25.1334  -74.5427 O.2       1 UNK        -0.5079 
     67 H67       -80.0106   28.0047  -78.4928 H         1 UNK         0.0900 
     68 H68       -81.3580   26.8860  -78.2703 H         1 UNK         0.0900 
     69 H69       -79.7095   26.2668  -78.3892 H         1 UNK         0.0900 
     70 H70       -82.1053   26.8312  -76.1687 H         1 UNK         0.2959 
     71 H71       -80.2358   27.1100  -73.8788 H         1 UNK         0.1079 
     72 H72       -83.0685   28.2664  -74.1961 H         1 UNK         0.0837 
     73 H73       -82.3278   28.0525  -72.6421 H         1 UNK         0.0837 
     74 H74       -81.7652   29.9262  -71.4829 H         1 UNK         0.0685 
     75 H75       -81.0347   31.3939  -72.0590 H         1 UNK         0.0685 
     76 H76       -80.2014   27.7590  -71.5139 H         1 UNK         0.1434 
     77 H77       -76.1414   28.5919  -70.4665 H         1 UNK         0.1329 
     78 H78       -78.7351   31.7794  -71.6988 H         1 UNK         0.1335 
     79 H79       -76.4364   31.9439  -69.9859 H         1 UNK         0.0680 
     80 H80       -76.2478   32.0646  -71.7180 H         1 UNK         0.0680 
     81 H81       -74.1838   30.9044  -73.0891 H         1 UNK         0.1032 
     82 H82       -75.0751   29.4584  -72.7236 H         1 UNK         0.1032 
     83 H83       -72.1547   29.7319  -71.8893 H         1 UNK         0.0461 
     84 H84       -72.2888   25.9038  -72.0454 H         1 UNK         0.3453 
     85 H85       -71.5681   27.0313  -73.1716 H         1 UNK         0.3453 
     86 H86       -72.9642   28.6278  -74.5203 H         1 UNK         0.2984 
     87 H87       -71.6019   30.1997  -76.4244 H         1 UNK         0.0554 
     88 H88       -69.3040   29.6411  -77.2503 H         1 UNK         0.0847 
     89 H89       -68.8170   29.2117  -75.6109 H         1 UNK         0.0847 
     90 H90       -69.2626   30.8673  -75.9956 H         1 UNK         0.0847 
     91 H91       -72.0263   28.1241  -77.0301 H         1 UNK         0.3141 
     92 H92       -70.6013   25.1979  -76.8955 H         1 UNK         0.0743 
     93 H93       -72.8319   25.1820  -74.7945 H         1 UNK         0.0784 
     94 H94       -72.3367   23.7992  -75.7661 H         1 UNK         0.0784 
     95 H95       -71.2266   24.4915  -74.5960 H         1 UNK         0.0784 
     96 H96       -73.4486   25.7262  -77.1070 H         1 UNK         0.3213 
     97 H97       -73.2829   27.2547  -80.3130 H         1 UNK         0.0855 
     98 H98       -74.3177   24.5099  -79.4260 H         1 UNK         0.0814 
     99 H99       -73.3246   24.8402  -80.8346 H         1 UNK         0.0814 
    100 H100      -74.9698   25.4520  -80.7690 H         1 UNK         0.0814 
    101 H101      -75.3979   26.5871  -78.4494 H         1 UNK         0.3105 
    102 H102      -75.4016   29.7282  -76.7593 H         1 UNK         0.0547 
    103 H103      -76.6660   30.1147  -78.8828 H         1 UNK         0.0837 
    104 H104      -77.3609   28.5023  -78.7758 H         1 UNK         0.0837 
    105 H105      -77.7480   29.7156  -77.5579 H         1 UNK         0.0837 
    106 H106      -77.1522   27.5600  -76.4249 H         1 UNK         0.3020 
    107 H107      -75.2007   25.6301  -74.1349 H         1 UNK         0.1245 
    108 H108      -77.5724   27.5478  -73.8726 H         1 UNK         0.0781 
    109 H109      -76.1932   27.3672  -72.8221 H         1 UNK         0.0781 
    110 H110      -76.9010   26.3678  -70.3320 H         1 UNK         0.0836 
    111 H111      -78.6157   26.0749  -70.1906 H         1 UNK         0.0836 
    112 H112      -77.7451   25.1092  -75.2204 H         1 UNK         0.3022 
    113 H113      -77.9098   23.9353  -77.6140 H         1 UNK         0.0747 
    114 H114      -77.0841   21.7095  -78.4280 H         1 UNK         0.0793 
    115 H115      -75.9897   23.0137  -78.8384 H         1 UNK         0.0793 
    116 H116      -75.5944   21.9315  -77.5095 H         1 UNK         0.0793 
    117 H117      -77.3925   21.7049  -75.7734 H         1 UNK         0.3047 
    118 H118      -80.0619   21.3452  -74.5809 H         1 UNK         0.0822 
    119 H119      -77.7427   20.6400  -74.0450 H         1 UNK         0.0807 
    120 H120      -78.6022   20.8578  -72.5357 H         1 UNK         0.0807 
    121 H121      -77.4727   22.0925  -73.0818 H         1 UNK         0.0807 
    122 H122      -79.7036   23.8913  -73.1594 H         1 UNK         0.2946 
    123 H123      -83.0217   23.9113  -72.1505 H         1 UNK         0.1144 
    124 H124      -81.9564   23.0559  -70.0580 H         1 UNK         0.0793 
    125 H125      -82.1083   24.8040  -70.0088 H         1 UNK         0.0793 
    126 H126      -80.5425   24.0613  -70.3413 H         1 UNK         0.0793 
    127 H127      -80.8229   25.7875  -72.0715 H         1 UNK         0.2896 
@<TRIPOS>BOND
     1    1    2 1    
     2    1   67 1    
     3    1   68 1    
     4    1   69 1    
     5    2    3 2    
     6    2    4 am   BACKBONE|DICT|INTERRES
     7    4    5 1    
     8    4   70 1    
     9    5    6 1    
    10    5   65 1    
    11    5   71 1    
    12    6    7 1    
    13    6   72 1    
    14    6   73 1    
    15    7    8 1    
    16    8    9 1    
    17    8   74 1    
    18    8   75 1    
    19    9   10 ar   
    20    9   14 ar   
    21   10   11 ar   
    22   10   76 1    
    23   11   12 ar   
    24   11   48 1    
    25   12   13 ar   
    26   12   77 1    
    27   13   14 ar   
    28   13   15 1    
    29   14   78 1    
    30   15   16 1    
    31   15   79 1    
    32   15   80 1    
    33   16   17 1    
    34   17   18 1    
    35   17   81 1    
    36   17   82 1    
    37   18   19 1    
    38   18   22 1    
    39   18   83 1    
    40   19   20 am   BACKBONE|DICT|INTERRES
    41   19   21 2    
    42   20   84 1    
    43   20   85 1    
    44   22   23 am   BACKBONE|DICT|INTERRES
    45   22   86 1    
    46   23   24 2    
    47   23   25 1    
    48   25   26 1    
    49   25   27 1    
    50   25   87 1    
    51   26   88 1    
    52   26   89 1    
    53   26   90 1    
    54   27   28 am   BACKBONE|DICT|INTERRES
    55   27   91 1    
    56   28   29 2    
    57   28   30 1    
    58   30   31 1    
    59   30   32 1    
    60   30   92 1    
    61   31   93 1    
    62   31   94 1    
    63   31   95 1    
    64   32   33 am   BACKBONE|DICT|INTERRES
    65   32   96 1    
    66   33   34 2    
    67   33   35 1    
    68   35   36 1    
    69   35   37 1    
    70   35   97 1    
    71   36   98 1    
    72   36   99 1    
    73   36  100 1    
    74   37   38 am   BACKBONE|DICT|INTERRES
    75   37  101 1    
    76   38   39 2    
    77   38   40 1    
    78   40   41 1    
    79   40   42 1    
    80   40  102 1    
    81   41  103 1    
    82   41  104 1    
    83   41  105 1    
    84   42   43 am   BACKBONE|DICT|INTERRES
    85   42  106 1    
    86   43   44 2    
    87   43   45 1    
    88   45   46 1    
    89   45   49 1    
    90   45  107 1    
    91   46   47 1    
    92   46  108 1    
    93   46  109 1    
    94   47   48 1    
    95   48  110 1    
    96   48  111 1    
    97   49   50 am   BACKBONE|DICT|INTERRES
    98   49  112 1    
    99   50   51 2    
   100   50   52 1    
   101   52   53 1    
   102   52   54 1    
   103   52  113 1    
   104   53  114 1    
   105   53  115 1    
   106   53  116 1    
   107   54   55 am   BACKBONE|DICT|INTERRES
   108   54  117 1    
   109   55   56 2    
   110   55   57 1    
   111   57   58 1    
   112   57   59 1    
   113   57  118 1    
   114   58  119 1    
   115   58  120 1    
   116   58  121 1    
   117   59   60 am   BACKBONE|DICT|INTERRES
   118   59  122 1    
   119   60   61 2    
   120   60   62 1    
   121   62   63 1    
   122   62   64 1    
   123   62  123 1    
   124   63  124 1    
   125   63  125 1    
   126   63  126 1    
   127   64   65 am   BACKBONE|DICT|INTERRES
   128   64  127 1    
   129   65   66 2    
@<TRIPOS>SUBSTRUCTURE
     1 UNK         1 GROUP             0       ****    0 ROOT    
