@<TRIPOS>MOLECULE
3R135
127   129    1
SMALL
USER_CHARGES


@<TRIPOS>ATOM
      1 CA        -83.8279   29.2323  -74.3407 C.3       0 UNK        -0.1998 
      2 C         -82.3600   29.1210  -73.9591 C.2       0 UNK         0.4909 
      3 O         -81.5749   30.0160  -74.2719 O.2       0 UNK        -0.5240 
      4 N         -81.9754   28.0196  -73.3019 N.am      1 UNK        -0.4739 
      5 CA        -80.6211   27.7311  -72.8036 C.3       1 UNK         0.0864 
      6 C6        -80.6755   26.7458  -71.6056 C.3       11 UNK        -0.0881 
      7 S7        -81.4457   27.5456  -70.1526 S.3       11 UNK        -0.2682 
      8 C8        -80.0488   27.7705  -68.9960 C.3       11 UNK         0.0289 
      9 C9        -78.7638   28.2240  -69.6787 C.ar      11 UNK        -0.0687 
     10 C10       -77.6483   27.3836  -69.6841 C.ar      11 UNK        -0.0823 
     11 C11       -76.4763   27.7588  -70.3443 C.ar      11 UNK        -0.0830 
     12 C12       -76.4202   28.9930  -71.0006 C.ar      11 UNK        -0.1021 
     13 C13       -77.5289   29.8479  -70.9973 C.ar      11 UNK        -0.0753 
     14 C14       -78.6923   29.4624  -70.3224 C.ar      11 UNK        -0.0933 
     15 C15       -77.4767   31.1958  -71.7038 C.3       11 UNK         0.0166 
     16 S16       -77.5927   31.0322  -73.5167 S.3       11 UNK        -0.2615 
     17 C17       -75.8339   30.9419  -74.0032 C.3       11 UNK        -0.0865 
     18 CA        -75.4829   29.6272  -74.7638 C.3       10 UNK         0.0862 
     19 C         -75.6292   29.7202  -76.3122 C.2       10 UNK         0.5551 
     20 N         -75.1781   28.7107  -77.0461 N.am      10 UNK        -0.7319 
     21 O         -76.1479   30.6919  -76.8555 O.2       10 UNK        -0.5018 
     22 N         -74.1890   29.0675  -74.3426 N.am      10 UNK        -0.4509 
     23 C         -73.0003   29.6694  -74.4769 C.2       10 UNK         0.4899 
     24 O         -72.8351   30.7781  -74.9849 O.2       10 UNK        -0.4839 
     25 CA        -71.7932   28.9085  -73.9256 C.3       9 UNK         0.0222 
     26 CB        -71.8766   28.7765  -72.3903 C.3       9 UNK        -0.1966 
     27 N         -71.6553   27.6008  -74.5695 N.am      9 UNK        -0.4218 
     28 C         -70.5361   26.8640  -74.5336 C.2       9 UNK         0.5020 
     29 O         -69.5160   27.1895  -73.9237 O.2       9 UNK        -0.5274 
     30 CA        -70.5418   25.5372  -75.3087 C.3       8 UNK         0.0270 
     31 CB        -71.1818   24.4245  -74.4619 C.3       8 UNK        -0.1976 
     32 N         -71.2220   25.6111  -76.6012 N.am      8 UNK        -0.4313 
     33 C         -70.8678   26.3656  -77.6488 C.2       8 UNK         0.5041 
     34 O         -69.8956   27.1216  -77.6449 O.2       8 UNK        -0.5577 
     35 CA        -71.7350   26.2759  -78.9235 C.3       7 UNK         0.0284 
     36 CB        -71.1059   25.3104  -79.9476 C.3       7 UNK        -0.1958 
     37 N         -73.1569   25.9625  -78.6973 N.am      7 UNK        -0.4454 
     38 C         -73.6987   24.8448  -78.1946 C.2       7 UNK         0.5089 
     39 O         -73.0528   23.8492  -77.8616 O.2       7 UNK        -0.5125 
     40 CA        -75.2125   24.8721  -77.9436 C.3       6 UNK         0.0408 
     41 CB        -75.9181   23.8085  -78.8012 C.3       6 UNK        -0.1791 
     42 N         -75.5230   24.6369  -76.5314 N.am      6 UNK        -0.4762 
     43 C         -75.0816   25.3537  -75.4868 C.2       6 UNK         0.5007 
     44 O         -74.3600   26.3501  -75.6011 O.2       6 UNK        -0.5032 
     45 CA        -75.5209   24.8823  -74.0836 C.3       5 UNK         0.0783 
     46 C46       -75.3434   25.9834  -73.0069 C.3       11 UNK        -0.0857 
     47 S47       -75.5632   25.3289  -71.3234 S.3       11 UNK        -0.2512 
     48 C48       -75.2758   26.8245  -70.3249 C.3       11 UNK         0.0225 
     49 N         -76.8934   24.3628  -74.1042 N.am      5 UNK        -0.4615 
     50 C         -77.2321   23.0785  -74.2707 C.2       4 UNK         0.5053 
     51 O         -76.4193   22.1811  -74.4900 O.2       4 UNK        -0.5105 
     52 CA        -78.7283   22.7466  -74.2176 C.3       4 UNK         0.0263 
     53 CB        -79.2568   22.8493  -72.7762 C.3       4 UNK        -0.1981 
     54 N         -79.4882   23.6496  -75.0817 N.am      4 UNK        -0.4224 
     55 C         -79.9107   23.3556  -76.3200 C.2       3 UNK         0.4895 
     56 O         -79.7224   22.2694  -76.8687 O.2       3 UNK        -0.5091 
     57 CA        -80.6886   24.4479  -77.0800 C.3       3 UNK         0.0250 
     58 CB        -82.2027   24.2487  -76.9028 C.3       3 UNK        -0.1996 
     59 N         -80.3319   25.8032  -76.6569 N.am      3 UNK        -0.4254 
     60 C         -79.1731   26.4073  -76.9527 C.2       2 UNK         0.5004 
     61 O         -78.3456   25.9412  -77.7319 O.2       2 UNK        -0.5226 
     62 CA        -78.8695   27.7455  -76.2557 C.3       2 UNK         0.0269 
     63 CB        -79.0769   28.9136  -77.2316 C.3       2 UNK        -0.1926 
     64 N         -79.6533   28.0035  -75.0433 N.am      2 UNK        -0.4687 
     65 C         -79.6773   27.2578  -73.9313 C.2       1 UNK         0.5165 
     66 O         -79.0293   26.2164  -73.8110 O.2       1 UNK        -0.5079 
     67 H67       -83.9297   29.3059  -75.4232 H         1 UNK         0.0900 
     68 H68       -84.2634   30.1266  -73.8957 H         1 UNK         0.0900 
     69 H69       -84.4039   28.3708  -74.0030 H         1 UNK         0.0900 
     70 H70       -82.6689   27.3195  -73.0800 H         1 UNK         0.2959 
     71 H71       -80.1863   28.6677  -72.4506 H         1 UNK         0.1079 
     72 H72       -81.2517   25.8562  -71.8656 H         1 UNK         0.0837 
     73 H73       -79.6842   26.3788  -71.3375 H         1 UNK         0.0837 
     74 H74       -80.3312   28.5035  -68.2392 H         1 UNK         0.0685 
     75 H75       -79.8896   26.8308  -68.4646 H         1 UNK         0.0685 
     76 H76       -77.6932   26.4236  -69.1878 H         1 UNK         0.1434 
     77 H77       -75.5153   29.2887  -71.5119 H         1 UNK         0.1329 
     78 H78       -79.5559   30.1137  -70.3173 H         1 UNK         0.1335 
     79 H79       -78.3056   31.8225  -71.3710 H         1 UNK         0.0680 
     80 H80       -76.5716   31.7338  -71.4194 H         1 UNK         0.0680 
     81 H81       -75.2223   31.0300  -73.1055 H         1 UNK         0.1032 
     82 H82       -75.5798   31.8253  -74.5918 H         1 UNK         0.1032 
     83 H83       -76.2093   28.8717  -74.4631 H         1 UNK         0.0461 
     84 H84       -75.2653   28.7613  -78.0472 H         1 UNK         0.3453 
     85 H85       -74.7801   27.8934  -76.5951 H         1 UNK         0.3453 
     86 H86       -74.2186   28.1296  -73.9745 H         1 UNK         0.2984 
     87 H87       -70.9083   29.5011  -74.1685 H         1 UNK         0.0554 
     88 H88       -70.9343   28.4284  -71.9675 H         1 UNK         0.0847 
     89 H89       -72.6527   28.0763  -72.0854 H         1 UNK         0.0847 
     90 H90       -72.0979   29.7375  -71.9236 H         1 UNK         0.0847 
     91 H91       -72.4399   27.2707  -75.1219 H         1 UNK         0.3141 
     92 H92       -69.5025   25.2643  -75.5034 H         1 UNK         0.0743 
     93 H93       -72.2310   24.6311  -74.2490 H         1 UNK         0.0784 
     94 H94       -71.1254   23.4593  -74.9658 H         1 UNK         0.0784 
     95 H95       -70.6696   24.3198  -73.5043 H         1 UNK         0.0784 
     96 H96       -71.9956   24.9697  -76.7518 H         1 UNK         0.3213 
     97 H97       -71.7236   27.2732  -79.3665 H         1 UNK         0.0855 
     98 H98       -70.0879   25.6156  -80.1936 H         1 UNK         0.0814 
     99 H99       -71.6725   25.2945  -80.8785 H         1 UNK         0.0814 
    100 H100      -71.0526   24.2893  -79.5689 H         1 UNK         0.0814 
    101 H101      -73.7878   26.7254  -78.8991 H         1 UNK         0.3105 
    102 H102      -75.6081   25.8534  -78.2124 H         1 UNK         0.0547 
    103 H103      -75.7333   23.9785  -79.8626 H         1 UNK         0.0837 
    104 H104      -75.5685   22.8023  -78.5661 H         1 UNK         0.0837 
    105 H105      -76.9981   23.8282  -78.6551 H         1 UNK         0.0837 
    106 H106      -76.0876   23.8243  -76.3301 H         1 UNK         0.3020 
    107 H107      -74.8368   24.0696  -73.8277 H         1 UNK         0.1245 
    108 H108      -76.0507   26.7990  -73.1674 H         1 UNK         0.0781 
    109 H109      -74.3403   26.4099  -73.0482 H         1 UNK         0.0781 
    110 H110      -74.3750   27.3333  -70.6674 H         1 UNK         0.0836 
    111 H111      -75.0781   26.5235  -69.2951 H         1 UNK         0.0836 
    112 H112      -77.6297   25.0470  -73.9438 H         1 UNK         0.3022 
    113 H113      -78.8569   21.7135  -74.5481 H         1 UNK         0.0747 
    114 H114      -80.3096   22.5725  -72.7215 H         1 UNK         0.0793 
    115 H115      -78.7101   22.1776  -72.1129 H         1 UNK         0.0793 
    116 H116      -79.1557   23.8575  -72.3723 H         1 UNK         0.0793 
    117 H117      -79.6224   24.5913  -74.7293 H         1 UNK         0.3047 
    118 H118      -80.4508   24.3443  -78.1411 H         1 UNK         0.0822 
    119 H119      -82.7698   24.9720  -77.4892 H         1 UNK         0.0807 
    120 H120      -82.5056   24.3487  -75.8597 H         1 UNK         0.0807 
    121 H121      -82.5063   23.2552  -77.2361 H         1 UNK         0.0807 
    122 H122      -80.9687   26.2746  -76.0319 H         1 UNK         0.2946 
    123 H123      -77.8186   27.7110  -75.9649 H         1 UNK         0.1144 
    124 H124      -78.8144   29.8666  -76.7716 H         1 UNK         0.0793 
    125 H125      -80.1122   28.9789  -77.5684 H         1 UNK         0.0793 
    126 H126      -78.4492   28.7994  -78.1167 H         1 UNK         0.0793 
    127 H127      -80.2253   28.8441  -75.0376 H         1 UNK         0.2896 
@<TRIPOS>BOND
     1    1    2 1    
     2    1   67 1    
     3    1   68 1    
     4    1   69 1    
     5    2    3 2    
     6    2    4 am   BACKBONE|DICT|INTERRES
     7    4    5 1    
     8    4   70 1    
     9    5    6 1    
    10    5   65 1    
    11    5   71 1    
    12    6    7 1    
    13    6   72 1    
    14    6   73 1    
    15    7    8 1    
    16    8    9 1    
    17    8   74 1    
    18    8   75 1    
    19    9   10 ar   
    20    9   14 ar   
    21   10   11 ar   
    22   10   76 1    
    23   11   12 ar   
    24   11   48 1    
    25   12   13 ar   
    26   12   77 1    
    27   13   14 ar   
    28   13   15 1    
    29   14   78 1    
    30   15   16 1    
    31   15   79 1    
    32   15   80 1    
    33   16   17 1    
    34   17   18 1    
    35   17   81 1    
    36   17   82 1    
    37   18   19 1    
    38   18   22 1    
    39   18   83 1    
    40   19   20 am   BACKBONE|DICT|INTERRES
    41   19   21 2    
    42   20   84 1    
    43   20   85 1    
    44   22   23 am   BACKBONE|DICT|INTERRES
    45   22   86 1    
    46   23   24 2    
    47   23   25 1    
    48   25   26 1    
    49   25   27 1    
    50   25   87 1    
    51   26   88 1    
    52   26   89 1    
    53   26   90 1    
    54   27   28 am   BACKBONE|DICT|INTERRES
    55   27   91 1    
    56   28   29 2    
    57   28   30 1    
    58   30   31 1    
    59   30   32 1    
    60   30   92 1    
    61   31   93 1    
    62   31   94 1    
    63   31   95 1    
    64   32   33 am   BACKBONE|DICT|INTERRES
    65   32   96 1    
    66   33   34 2    
    67   33   35 1    
    68   35   36 1    
    69   35   37 1    
    70   35   97 1    
    71   36   98 1    
    72   36   99 1    
    73   36  100 1    
    74   37   38 am   BACKBONE|DICT|INTERRES
    75   37  101 1    
    76   38   39 2    
    77   38   40 1    
    78   40   41 1    
    79   40   42 1    
    80   40  102 1    
    81   41  103 1    
    82   41  104 1    
    83   41  105 1    
    84   42   43 am   BACKBONE|DICT|INTERRES
    85   42  106 1    
    86   43   44 2    
    87   43   45 1    
    88   45   46 1    
    89   45   49 1    
    90   45  107 1    
    91   46   47 1    
    92   46  108 1    
    93   46  109 1    
    94   47   48 1    
    95   48  110 1    
    96   48  111 1    
    97   49   50 am   BACKBONE|DICT|INTERRES
    98   49  112 1    
    99   50   51 2    
   100   50   52 1    
   101   52   53 1    
   102   52   54 1    
   103   52  113 1    
   104   53  114 1    
   105   53  115 1    
   106   53  116 1    
   107   54   55 am   BACKBONE|DICT|INTERRES
   108   54  117 1    
   109   55   56 2    
   110   55   57 1    
   111   57   58 1    
   112   57   59 1    
   113   57  118 1    
   114   58  119 1    
   115   58  120 1    
   116   58  121 1    
   117   59   60 am   BACKBONE|DICT|INTERRES
   118   59  122 1    
   119   60   61 2    
   120   60   62 1    
   121   62   63 1    
   122   62   64 1    
   123   62  123 1    
   124   63  124 1    
   125   63  125 1    
   126   63  126 1    
   127   64   65 am   BACKBONE|DICT|INTERRES
   128   64  127 1    
   129   65   66 2    
@<TRIPOS>SUBSTRUCTURE
     1 UNK         1 GROUP             0       ****    0 ROOT    
