@<TRIPOS>MOLECULE
3R135
127   129    1
SMALL
USER_CHARGES


@<TRIPOS>ATOM
      1 CA        -83.0069   28.7948  -76.1951 C.3       0 UNK        -0.1998 
      2 C         -83.1331   27.7439  -75.0954 C.2       0 UNK         0.4909 
      3 O         -83.7534   26.7071  -75.3196 O.2       0 UNK        -0.5240 
      4 N         -82.5643   27.9522  -73.8991 N.am      1 UNK        -0.4739 
      5 CA        -81.7390   29.0987  -73.4872 C.3       1 UNK         0.0864 
      6 C6        -81.7788   29.3155  -71.9537 C.3       11 UNK        -0.0881 
      7 S7        -81.3762   27.8307  -70.9663 S.3       11 UNK        -0.2682 
      8 C8        -79.9097   28.3672  -70.0271 C.3       11 UNK         0.0289 
      9 C9        -78.6071   27.9440  -70.6915 C.ar      11 UNK        -0.0687 
     10 C10       -78.2611   26.5917  -70.7295 C.ar      11 UNK        -0.0823 
     11 C11       -77.0389   26.1719  -71.2619 C.ar      11 UNK        -0.0830 
     12 C12       -76.1501   27.1373  -71.7577 C.ar      11 UNK        -0.1021 
     13 C13       -76.4905   28.4934  -71.7438 C.ar      11 UNK        -0.0753 
     14 C14       -77.7231   28.8915  -71.2148 C.ar      11 UNK        -0.0933 
     15 C15       -75.5153   29.5321  -72.2777 C.3       11 UNK         0.0166 
     16 S16       -75.6928   29.7441  -74.0749 S.3       11 UNK        -0.2615 
     17 C17       -74.8966   31.3675  -74.3263 C.3       11 UNK        -0.0865 
     18 CA        -73.6098   31.2964  -75.1977 C.3       10 UNK         0.0862 
     19 C         -73.0761   32.7083  -75.5918 C.2       10 UNK         0.5551 
     20 N         -71.7714   32.9038  -75.7424 N.am      10 UNK        -0.7319 
     21 O         -73.8545   33.6371  -75.7955 O.2       10 UNK        -0.5018 
     22 N         -72.5817   30.3819  -74.6661 N.am      10 UNK        -0.4509 
     23 C         -71.9482   30.4882  -73.4872 C.2       10 UNK         0.4899 
     24 O         -72.1874   31.3734  -72.6651 O.2       10 UNK        -0.4839 
     25 CA        -70.8221   29.4753  -73.1795 C.3       9 UNK         0.0222 
     26 CB        -70.8292   29.0191  -71.7040 C.3       9 UNK        -0.1966 
     27 N         -70.7703   28.3344  -74.1050 N.am      9 UNK        -0.4218 
     28 C         -71.6601   27.3386  -74.2168 C.2       9 UNK         0.5020 
     29 O         -72.6135   27.1590  -73.4569 O.2       9 UNK        -0.5274 
     30 CA        -71.4798   26.4124  -75.4314 C.3       8 UNK         0.0270 
     31 CB        -71.0167   25.0122  -74.9997 C.3       8 UNK        -0.1976 
     32 N         -72.7331   26.3316  -76.1881 N.am      8 UNK        -0.4313 
     33 C         -73.2773   27.3840  -76.8216 C.2       8 UNK         0.5041 
     34 O         -72.6880   28.4609  -76.9453 O.2       8 UNK        -0.5577 
     35 CA        -74.7176   27.2589  -77.3582 C.3       7 UNK         0.0284 
     36 CB        -74.9427   28.0738  -78.6494 C.3       7 UNK        -0.1958 
     37 N         -75.2068   25.8844  -77.5042 N.am      7 UNK        -0.4454 
     38 C         -74.7574   24.9309  -78.3348 C.2       7 UNK         0.5089 
     39 O         -73.8700   25.1056  -79.1709 O.2       7 UNK        -0.5125 
     40 CA        -75.3956   23.5337  -78.1599 C.3       6 UNK         0.0408 
     41 CB        -74.5546   22.4055  -78.7923 C.3       6 UNK        -0.1791 
     42 N         -75.7053   23.2280  -76.7553 N.am      6 UNK        -0.4762 
     43 C         -74.8434   23.2476  -75.7232 C.2       6 UNK         0.5007 
     44 O         -73.6311   23.3977  -75.8698 O.2       6 UNK        -0.5032 
     45 CA        -75.4100   23.1653  -74.2905 C.3       5 UNK         0.0783 
     46 C46       -74.9793   24.4134  -73.4762 C.3       11 UNK        -0.0857 
     47 S47       -75.0572   24.1432  -71.6759 S.3       11 UNK        -0.2512 
     48 C48       -76.7553   24.6683  -71.2649 C.3       11 UNK         0.0225 
     49 N         -76.8700   23.0576  -74.3175 N.am      5 UNK        -0.4615 
     50 C         -77.5790   21.9510  -74.0705 C.2       4 UNK         0.5053 
     51 O         -77.0789   20.8760  -73.7400 O.2       4 UNK        -0.5105 
     52 CA        -79.1101   22.0540  -74.2275 C.3       4 UNK         0.0263 
     53 CB        -79.7890   22.1963  -72.8551 C.3       4 UNK        -0.1981 
     54 N         -79.5513   23.1519  -75.0971 N.am      4 UNK        -0.4224 
     55 C         -79.3012   23.2317  -76.4116 C.2       3 UNK         0.4895 
     56 O         -78.6746   22.3800  -77.0413 O.2       3 UNK        -0.5091 
     57 CA        -79.7769   24.4990  -77.1404 C.3       3 UNK         0.0250 
     58 CB        -81.2291   24.3314  -77.6158 C.3       3 UNK        -0.1996 
     59 N         -79.6595   25.7459  -76.3737 N.am      3 UNK        -0.4254 
     60 C         -78.5374   26.2264  -75.8138 C.2       2 UNK         0.5004 
     61 O         -77.4765   25.6038  -75.7507 O.2       2 UNK        -0.5226 
     62 CA        -78.6076   27.6522  -75.2571 C.3       2 UNK         0.0269 
     63 CB        -78.3574   28.6478  -76.4123 C.3       2 UNK        -0.1926 
     64 N         -79.8986   27.8992  -74.6075 N.am      2 UNK        -0.4687 
     65 C         -80.2921   29.0414  -74.0253 C.2       1 UNK         0.5165 
     66 O         -79.5862   30.0450  -73.9282 O.2       1 UNK        -0.5079 
     67 H67       -83.4989   28.4527  -77.1056 H         1 UNK         0.0900 
     68 H68       -83.4834   29.7275  -75.8950 H         1 UNK         0.0900 
     69 H69       -81.9647   28.9935  -76.4407 H         1 UNK         0.0900 
     70 H70       -82.6795   27.2486  -73.1821 H         1 UNK         0.2959 
     71 H71       -82.1717   29.9984  -73.9291 H         1 UNK         0.1079 
     72 H72       -82.7857   29.6233  -71.6676 H         1 UNK         0.0837 
     73 H73       -81.1371   30.1508  -71.6671 H         1 UNK         0.0837 
     74 H74       -79.9552   27.9118  -69.0367 H         1 UNK         0.0685 
     75 H75       -79.9349   29.4443  -69.8569 H         1 UNK         0.0685 
     76 H76       -78.9503   25.8607  -70.3280 H         1 UNK         0.1434 
     77 H77       -75.1877   26.8538  -72.1593 H         1 UNK         0.1329 
     78 H78       -77.9854   29.9405  -71.1965 H         1 UNK         0.1335 
     79 H79       -75.6850   30.4843  -71.7731 H         1 UNK         0.0680 
     80 H80       -74.4884   29.2398  -72.0518 H         1 UNK         0.0680 
     81 H81       -75.6413   32.0048  -74.8063 H         1 UNK         0.1032 
     82 H82       -74.6831   31.8419  -73.3679 H         1 UNK         0.1032 
     83 H83       -73.9051   30.8534  -76.1493 H         1 UNK         0.0461 
     84 H84       -71.4346   33.8159  -76.0076 H         1 UNK         0.3453 
     85 H85       -71.1235   32.1467  -75.5969 H         1 UNK         0.3453 
     86 H86       -72.3383   29.6227  -75.2937 H         1 UNK         0.2984 
     87 H87       -69.8903   30.0191  -73.3407 H         1 UNK         0.0554 
     88 H88       -70.6712   29.8646  -71.0335 H         1 UNK         0.0847 
     89 H89       -70.0365   28.2980  -71.5055 H         1 UNK         0.0847 
     90 H90       -71.7785   28.5621  -71.4232 H         1 UNK         0.0847 
     91 H91       -70.0322   28.3802  -74.7949 H         1 UNK         0.3141 
     92 H92       -70.7183   26.8274  -76.0954 H         1 UNK         0.0743 
     93 H93       -71.7065   24.5543  -74.2911 H         1 UNK         0.0784 
     94 H94       -70.9223   24.3430  -75.8552 H         1 UNK         0.0784 
     95 H95       -70.0411   25.0594  -74.5146 H         1 UNK         0.0784 
     96 H96       -73.2481   25.4611  -76.1251 H         1 UNK         0.3213 
     97 H97       -75.3371   27.7030  -76.5785 H         1 UNK         0.0855 
     98 H98       -74.2792   27.7505  -79.4518 H         1 UNK         0.0814 
     99 H99       -74.7522   29.1343  -78.4799 H         1 UNK         0.0814 
    100 H100      -75.9689   27.9837  -79.0049 H         1 UNK         0.0814 
    101 H101      -75.9524   25.6272  -76.8593 H         1 UNK         0.3105 
    102 H102      -76.3526   23.5677  -78.6824 H         1 UNK         0.0547 
    103 H103      -75.0326   21.4348  -78.6626 H         1 UNK         0.0837 
    104 H104      -73.5568   22.3498  -78.3561 H         1 UNK         0.0837 
    105 H105      -74.4313   22.5641  -79.8642 H         1 UNK         0.0837 
    106 H106      -76.6857   23.0673  -76.5552 H         1 UNK         0.3020 
    107 H107      -74.9667   22.2748  -73.8388 H         1 UNK         0.1245 
    108 H108      -75.5734   25.2824  -73.7623 H         1 UNK         0.0781 
    109 H109      -73.9445   24.6903  -73.6797 H         1 UNK         0.0781 
    110 H110      -76.9791   24.2740  -70.2725 H         1 UNK         0.0836 
    111 H111      -77.4538   24.1836  -71.9440 H         1 UNK         0.0836 
    112 H112      -77.3550   23.8967  -74.6165 H         1 UNK         0.3022 
    113 H113      -79.4470   21.1177  -74.6777 H         1 UNK         0.0747 
    114 H114      -80.8734   22.1243  -72.9420 H         1 UNK         0.0793 
    115 H115      -79.4688   21.4056  -72.1749 H         1 UNK         0.0793 
    116 H116      -79.5551   23.1497  -72.3812 H         1 UNK         0.0793 
    117 H117      -80.0697   23.9006  -74.6618 H         1 UNK         0.3047 
    118 H118      -79.1440   24.6114  -78.0234 H         1 UNK         0.0822 
    119 H119      -81.5370   25.1599  -78.2540 H         1 UNK         0.0807 
    120 H120      -81.9259   24.2769  -76.7782 H         1 UNK         0.0807 
    121 H121      -81.3475   23.4168  -78.1990 H         1 UNK         0.0807 
    122 H122      -80.4618   26.3560  -76.4140 H         1 UNK         0.2946 
    123 H123      -77.8203   27.7535  -74.5072 H         1 UNK         0.1144 
    124 H124      -78.1441   29.6503  -76.0426 H         1 UNK         0.0793 
    125 H125      -79.2148   28.7137  -77.0826 H         1 UNK         0.0793 
    126 H126      -77.5009   28.3524  -77.0164 H         1 UNK         0.0793 
    127 H127      -80.5298   27.1125  -74.5524 H         1 UNK         0.2896 
@<TRIPOS>BOND
     1    1    2 1    
     2    1   67 1    
     3    1   68 1    
     4    1   69 1    
     5    2    3 2    
     6    2    4 am   BACKBONE|DICT|INTERRES
     7    4    5 1    
     8    4   70 1    
     9    5    6 1    
    10    5   65 1    
    11    5   71 1    
    12    6    7 1    
    13    6   72 1    
    14    6   73 1    
    15    7    8 1    
    16    8    9 1    
    17    8   74 1    
    18    8   75 1    
    19    9   10 ar   
    20    9   14 ar   
    21   10   11 ar   
    22   10   76 1    
    23   11   12 ar   
    24   11   48 1    
    25   12   13 ar   
    26   12   77 1    
    27   13   14 ar   
    28   13   15 1    
    29   14   78 1    
    30   15   16 1    
    31   15   79 1    
    32   15   80 1    
    33   16   17 1    
    34   17   18 1    
    35   17   81 1    
    36   17   82 1    
    37   18   19 1    
    38   18   22 1    
    39   18   83 1    
    40   19   20 am   BACKBONE|DICT|INTERRES
    41   19   21 2    
    42   20   84 1    
    43   20   85 1    
    44   22   23 am   BACKBONE|DICT|INTERRES
    45   22   86 1    
    46   23   24 2    
    47   23   25 1    
    48   25   26 1    
    49   25   27 1    
    50   25   87 1    
    51   26   88 1    
    52   26   89 1    
    53   26   90 1    
    54   27   28 am   BACKBONE|DICT|INTERRES
    55   27   91 1    
    56   28   29 2    
    57   28   30 1    
    58   30   31 1    
    59   30   32 1    
    60   30   92 1    
    61   31   93 1    
    62   31   94 1    
    63   31   95 1    
    64   32   33 am   BACKBONE|DICT|INTERRES
    65   32   96 1    
    66   33   34 2    
    67   33   35 1    
    68   35   36 1    
    69   35   37 1    
    70   35   97 1    
    71   36   98 1    
    72   36   99 1    
    73   36  100 1    
    74   37   38 am   BACKBONE|DICT|INTERRES
    75   37  101 1    
    76   38   39 2    
    77   38   40 1    
    78   40   41 1    
    79   40   42 1    
    80   40  102 1    
    81   41  103 1    
    82   41  104 1    
    83   41  105 1    
    84   42   43 am   BACKBONE|DICT|INTERRES
    85   42  106 1    
    86   43   44 2    
    87   43   45 1    
    88   45   46 1    
    89   45   49 1    
    90   45  107 1    
    91   46   47 1    
    92   46  108 1    
    93   46  109 1    
    94   47   48 1    
    95   48  110 1    
    96   48  111 1    
    97   49   50 am   BACKBONE|DICT|INTERRES
    98   49  112 1    
    99   50   51 2    
   100   50   52 1    
   101   52   53 1    
   102   52   54 1    
   103   52  113 1    
   104   53  114 1    
   105   53  115 1    
   106   53  116 1    
   107   54   55 am   BACKBONE|DICT|INTERRES
   108   54  117 1    
   109   55   56 2    
   110   55   57 1    
   111   57   58 1    
   112   57   59 1    
   113   57  118 1    
   114   58  119 1    
   115   58  120 1    
   116   58  121 1    
   117   59   60 am   BACKBONE|DICT|INTERRES
   118   59  122 1    
   119   60   61 2    
   120   60   62 1    
   121   62   63 1    
   122   62   64 1    
   123   62  123 1    
   124   63  124 1    
   125   63  125 1    
   126   63  126 1    
   127   64   65 am   BACKBONE|DICT|INTERRES
   128   64  127 1    
   129   65   66 2    
@<TRIPOS>SUBSTRUCTURE
     1 UNK         1 GROUP             0       ****    0 ROOT    
