@<TRIPOS>MOLECULE
3R135
127   129    1
SMALL
USER_CHARGES


@<TRIPOS>ATOM
      1 CA        -83.1873   24.0565  -71.4533 C.3       0 UNK        -0.1998 
      2 C         -82.7154   25.2568  -72.2576 C.2       0 UNK         0.4909 
      3 O         -82.1070   25.0814  -73.3130 O.2       0 UNK        -0.5240 
      4 N         -83.0081   26.4749  -71.7794 N.am      1 UNK        -0.4739 
      5 CA        -82.5933   27.7737  -72.3450 C.3       1 UNK         0.0864 
      6 C6        -81.0629   28.0266  -72.2543 C.3       11 UNK        -0.0881 
      7 S7        -80.4009   27.8340  -70.5636 S.3       11 UNK        -0.2682 
      8 C8        -79.2886   26.3994  -70.7740 C.3       11 UNK         0.0289 
      9 C9        -77.8912   26.7189  -71.3154 C.ar      11 UNK        -0.0687 
     10 C10       -76.8597   25.8064  -71.0641 C.ar      11 UNK        -0.0823 
     11 C11       -75.5600   26.0560  -71.5124 C.ar      11 UNK        -0.0830 
     12 C12       -75.2931   27.2262  -72.2217 C.ar      11 UNK        -0.1021 
     13 C13       -76.3098   28.1344  -72.5151 C.ar      11 UNK        -0.0753 
     14 C14       -77.6053   27.8776  -72.0550 C.ar      11 UNK        -0.0933 
     15 C15       -76.0012   29.3969  -73.3119 C.3       11 UNK         0.0166 
     16 S16       -75.1620   29.0277  -74.8895 S.3       11 UNK        -0.2615 
     17 C17       -75.0662   30.6917  -75.6411 C.3       11 UNK        -0.0865 
     18 CA        -73.6576   31.3424  -75.5713 C.3       10 UNK         0.0862 
     19 C         -73.3258   31.9043  -74.1553 C.2       10 UNK         0.5551 
     20 N         -72.1955   31.5724  -73.5416 N.am      10 UNK        -0.7319 
     21 O         -74.1099   32.6736  -73.6053 O.2       10 UNK        -0.5018 
     22 N         -72.6355   30.4551  -76.1424 N.am      10 UNK        -0.4509 
     23 C         -71.4725   30.8416  -76.6789 C.2       10 UNK         0.4899 
     24 O         -71.1581   32.0180  -76.8660 O.2       10 UNK        -0.4839 
     25 CA        -70.4960   29.7036  -77.0382 C.3       9 UNK         0.0222 
     26 CB        -69.0658   30.2023  -77.3355 C.3       9 UNK        -0.1966 
     27 N         -70.4850   28.6392  -76.0234 N.am      9 UNK        -0.4218 
     28 C         -70.1626   28.7656  -74.7240 C.2       9 UNK         0.5020 
     29 O         -69.7839   29.8241  -74.2206 O.2       9 UNK        -0.5274 
     30 CA        -70.3502   27.5460  -73.7983 C.3       8 UNK         0.0270 
     31 CB        -71.4146   27.8620  -72.7349 C.3       8 UNK        -0.1976 
     32 N         -70.7390   26.3211  -74.5001 N.am      8 UNK        -0.4313 
     33 C         -69.9175   25.5581  -75.2326 C.2       8 UNK         0.5041 
     34 O         -68.7072   25.7603  -75.3357 O.2       8 UNK        -0.5577 
     35 CA        -70.5559   24.3906  -76.0082 C.3       7 UNK         0.0284 
     36 CB        -70.3929   23.0782  -75.2246 C.3       7 UNK        -0.1958 
     37 N         -71.9754   24.5740  -76.3345 N.am      7 UNK        -0.4454 
     38 C         -72.5159   25.5768  -77.0387 C.2       7 UNK         0.5089 
     39 O         -71.8622   26.5215  -77.4812 O.2       7 UNK        -0.5125 
     40 CA        -74.0420   25.5617  -77.2545 C.3       6 UNK         0.0408 
     41 CB        -74.3995   24.9170  -78.6065 C.3       6 UNK        -0.1791 
     42 N         -74.8258   24.9739  -76.1561 N.am      6 UNK        -0.4762 
     43 C         -74.8679   23.7028  -75.7209 C.2       6 UNK         0.5007 
     44 O         -74.1952   22.7923  -76.2052 O.2       6 UNK        -0.5032 
     45 CA        -75.7825   23.4026  -74.5136 C.3       5 UNK         0.0783 
     46 C46       -74.9873   23.1369  -73.2065 C.3       11 UNK        -0.0857 
     47 S47       -73.7320   24.3881  -72.7523 S.3       11 UNK        -0.2512 
     48 C48       -74.4278   25.0844  -71.2210 C.3       11 UNK         0.0225 
     49 N         -76.8342   24.4167  -74.3491 N.am      5 UNK        -0.4615 
     50 C         -77.9546   24.4284  -75.0875 C.2       4 UNK         0.5053 
     51 O         -78.2249   23.5456  -75.9045 O.2       4 UNK        -0.5105 
     52 CA        -78.9145   25.6131  -74.8629 C.3       4 UNK         0.0263 
     53 CB        -78.3293   26.9275  -75.4153 C.3       4 UNK        -0.1981 
     54 N         -80.2716   25.3763  -75.3769 N.am      4 UNK        -0.4224 
     55 C         -80.6780   25.2476  -76.6516 C.2       3 UNK         0.4895 
     56 O         -79.9664   25.4345  -77.6395 O.2       3 UNK        -0.5091 
     57 CA        -82.1423   24.8384  -76.8655 C.3       3 UNK         0.0250 
     58 CB        -82.3447   23.3520  -76.5233 C.3       3 UNK        -0.1996 
     59 N         -83.0476   25.6499  -76.0512 N.am      3 UNK        -0.4254 
     60 C         -83.8845   26.5816  -76.5301 C.2       2 UNK         0.5004 
     61 O         -83.9976   26.8530  -77.7263 O.2       2 UNK        -0.5226 
     62 CA        -84.7628   27.3378  -75.5134 C.3       2 UNK         0.0269 
     63 CB        -86.1788   26.7393  -75.4789 C.3       2 UNK        -0.1926 
     64 N         -84.2128   27.3392  -74.1554 N.am      2 UNK        -0.4687 
     65 C         -83.1234   28.0235  -73.7782 C.2       1 UNK         0.5165 
     66 O         -82.5389   28.8129  -74.5224 O.2       1 UNK        -0.5079 
     67 H67       -82.3331   23.4497  -71.1547 H         1 UNK         0.0900 
     68 H68       -83.7244   24.3538  -70.5529 H         1 UNK         0.0900 
     69 H69       -83.8504   23.4381  -72.0575 H         1 UNK         0.0900 
     70 H70       -83.5243   26.5414  -70.9128 H         1 UNK         0.2959 
     71 H71       -83.0809   28.5320  -71.7302 H         1 UNK         0.1079 
     72 H72       -80.8272   29.0438  -72.5729 H         1 UNK         0.0837 
     73 H73       -80.5290   27.3691  -72.9409 H         1 UNK         0.0837 
     74 H74       -79.7643   25.6567  -71.4151 H         1 UNK         0.0685 
     75 H75       -79.1866   25.9306  -69.7941 H         1 UNK         0.0685 
     76 H76       -77.0675   24.9044  -70.5042 H         1 UNK         0.1434 
     77 H77       -74.2890   27.4210  -72.5634 H         1 UNK         0.1329 
     78 H78       -78.3833   28.5926  -72.2748 H         1 UNK         0.1335 
     79 H79       -75.3691   30.0511  -72.7100 H         1 UNK         0.0680 
     80 H80       -76.9188   29.9490  -73.5206 H         1 UNK         0.0680 
     81 H81       -75.8232   31.3469  -75.2061 H         1 UNK         0.1032 
     82 H82       -75.3540   30.5872  -76.6882 H         1 UNK         0.1032 
     83 H83       -73.6999   32.2260  -76.2110 H         1 UNK         0.0461 
     84 H84       -72.0062   31.9573  -72.6304 H         1 UNK         0.3453 
     85 H85       -71.5082   30.9751  -73.9838 H         1 UNK         0.3453 
     86 H86       -72.8068   29.4682  -76.0175 H         1 UNK         0.2984 
     87 H87       -70.8820   29.2483  -77.9513 H         1 UNK         0.0554 
     88 H88       -69.0617   30.8970  -78.1763 H         1 UNK         0.0847 
     89 H89       -68.4042   29.3762  -77.5958 H         1 UNK         0.0847 
     90 H90       -68.6312   30.7243  -76.4825 H         1 UNK         0.0847 
     91 H91       -70.8235   27.7388  -76.3527 H         1 UNK         0.3141 
     92 H92       -69.3994   27.3655  -73.2925 H         1 UNK         0.0743 
     93 H93       -71.0768   28.6593  -72.0715 H         1 UNK         0.0784 
     94 H94       -71.6373   26.9956  -72.1116 H         1 UNK         0.0784 
     95 H95       -72.3411   28.2027  -73.1965 H         1 UNK         0.0784 
     96 H96       -71.7141   26.0601  -74.4603 H         1 UNK         0.3213 
     97 H97       -70.0158   24.2986  -76.9528 H         1 UNK         0.0855 
     98 H98       -70.9453   23.1002  -74.2840 H         1 UNK         0.0814 
     99 H99       -69.3450   22.8927  -74.9843 H         1 UNK         0.0814 
    100 H100      -70.7475   22.2240  -75.8017 H         1 UNK         0.0814 
    101 H101      -72.6077   23.8253  -76.0651 H         1 UNK         0.3105 
    102 H102      -74.3530   26.6068  -77.3008 H         1 UNK         0.0547 
    103 H103      -74.0983   23.8702  -78.6538 H         1 UNK         0.0837 
    104 H104      -75.4714   24.9668  -78.7980 H         1 UNK         0.0837 
    105 H105      -73.8995   25.4335  -79.4268 H         1 UNK         0.0837 
    106 H106      -75.3927   25.6367  -75.6464 H         1 UNK         0.3020 
    107 H107      -76.2749   22.4574  -74.7563 H         1 UNK         0.1245 
    108 H108      -74.4583   22.1868  -73.3008 H         1 UNK         0.0781 
    109 H109      -75.6814   22.9916  -72.3775 H         1 UNK         0.0781 
    110 H110      -73.6377   25.6160  -70.6889 H         1 UNK         0.0836 
    111 H111      -74.7508   24.2791  -70.5595 H         1 UNK         0.0836 
    112 H112      -76.6609   25.1464  -73.6704 H         1 UNK         0.3022 
    113 H113      -79.0270   25.7189  -73.7846 H         1 UNK         0.0747 
    114 H114      -78.9941   27.7699  -75.2240 H         1 UNK         0.0793 
    115 H115      -77.3767   27.1550  -74.9421 H         1 UNK         0.0793 
    116 H116      -78.1446   26.8795  -76.4884 H         1 UNK         0.0793 
    117 H117      -80.9608   25.1871  -74.6493 H         1 UNK         0.3047 
    118 H118      -82.3667   24.9670  -77.9267 H         1 UNK         0.0822 
    119 H119      -83.3605   23.0296  -76.7524 H         1 UNK         0.0807 
    120 H120      -82.1596   23.1475  -75.4679 H         1 UNK         0.0807 
    121 H121      -81.6661   22.7231  -77.1014 H         1 UNK         0.0807 
    122 H122      -82.9834   25.5228  -75.0465 H         1 UNK         0.2946 
    123 H123      -84.8349   28.3729  -75.8558 H         1 UNK         0.1144 
    124 H124      -86.8351   27.3090  -74.8207 H         1 UNK         0.0793 
    125 H125      -86.1719   25.7042  -75.1351 H         1 UNK         0.0793 
    126 H126      -86.6310   26.7497  -76.4718 H         1 UNK         0.0793 
    127 H127      -84.6395   26.7162  -73.4846 H         1 UNK         0.2896 
@<TRIPOS>BOND
     1    1    2 1    
     2    1   67 1    
     3    1   68 1    
     4    1   69 1    
     5    2    3 2    
     6    2    4 am   BACKBONE|DICT|INTERRES
     7    4    5 1    
     8    4   70 1    
     9    5    6 1    
    10    5   65 1    
    11    5   71 1    
    12    6    7 1    
    13    6   72 1    
    14    6   73 1    
    15    7    8 1    
    16    8    9 1    
    17    8   74 1    
    18    8   75 1    
    19    9   10 ar   
    20    9   14 ar   
    21   10   11 ar   
    22   10   76 1    
    23   11   12 ar   
    24   11   48 1    
    25   12   13 ar   
    26   12   77 1    
    27   13   14 ar   
    28   13   15 1    
    29   14   78 1    
    30   15   16 1    
    31   15   79 1    
    32   15   80 1    
    33   16   17 1    
    34   17   18 1    
    35   17   81 1    
    36   17   82 1    
    37   18   19 1    
    38   18   22 1    
    39   18   83 1    
    40   19   20 am   BACKBONE|DICT|INTERRES
    41   19   21 2    
    42   20   84 1    
    43   20   85 1    
    44   22   23 am   BACKBONE|DICT|INTERRES
    45   22   86 1    
    46   23   24 2    
    47   23   25 1    
    48   25   26 1    
    49   25   27 1    
    50   25   87 1    
    51   26   88 1    
    52   26   89 1    
    53   26   90 1    
    54   27   28 am   BACKBONE|DICT|INTERRES
    55   27   91 1    
    56   28   29 2    
    57   28   30 1    
    58   30   31 1    
    59   30   32 1    
    60   30   92 1    
    61   31   93 1    
    62   31   94 1    
    63   31   95 1    
    64   32   33 am   BACKBONE|DICT|INTERRES
    65   32   96 1    
    66   33   34 2    
    67   33   35 1    
    68   35   36 1    
    69   35   37 1    
    70   35   97 1    
    71   36   98 1    
    72   36   99 1    
    73   36  100 1    
    74   37   38 am   BACKBONE|DICT|INTERRES
    75   37  101 1    
    76   38   39 2    
    77   38   40 1    
    78   40   41 1    
    79   40   42 1    
    80   40  102 1    
    81   41  103 1    
    82   41  104 1    
    83   41  105 1    
    84   42   43 am   BACKBONE|DICT|INTERRES
    85   42  106 1    
    86   43   44 2    
    87   43   45 1    
    88   45   46 1    
    89   45   49 1    
    90   45  107 1    
    91   46   47 1    
    92   46  108 1    
    93   46  109 1    
    94   47   48 1    
    95   48  110 1    
    96   48  111 1    
    97   49   50 am   BACKBONE|DICT|INTERRES
    98   49  112 1    
    99   50   51 2    
   100   50   52 1    
   101   52   53 1    
   102   52   54 1    
   103   52  113 1    
   104   53  114 1    
   105   53  115 1    
   106   53  116 1    
   107   54   55 am   BACKBONE|DICT|INTERRES
   108   54  117 1    
   109   55   56 2    
   110   55   57 1    
   111   57   58 1    
   112   57   59 1    
   113   57  118 1    
   114   58  119 1    
   115   58  120 1    
   116   58  121 1    
   117   59   60 am   BACKBONE|DICT|INTERRES
   118   59  122 1    
   119   60   61 2    
   120   60   62 1    
   121   62   63 1    
   122   62   64 1    
   123   62  123 1    
   124   63  124 1    
   125   63  125 1    
   126   63  126 1    
   127   64   65 am   BACKBONE|DICT|INTERRES
   128   64  127 1    
   129   65   66 2    
@<TRIPOS>SUBSTRUCTURE
     1 UNK         1 GROUP             0       ****    0 ROOT    
