@<TRIPOS>MOLECULE
3R135
127   129    1
SMALL
USER_CHARGES


@<TRIPOS>ATOM
      1 CA        -80.0316   29.9979  -76.5733 C.3       0 UNK        -0.1998 
      2 C         -80.0143   28.9892  -75.4354 C.2       0 UNK         0.4909 
      3 O         -79.1386   28.1269  -75.3969 O.2       0 UNK        -0.5240 
      4 N         -80.9776   29.0837  -74.5108 N.am      1 UNK        -0.4739 
      5 CA        -81.1272   28.1961  -73.3515 C.3       1 UNK         0.0864 
      6 C6        -81.8177   28.9127  -72.1620 C.3       11 UNK        -0.0881 
      7 S7        -80.9185   30.4022  -71.6055 S.3       11 UNK        -0.2682 
      8 C8        -80.2085   29.8599  -70.0191 C.3       11 UNK         0.0289 
      9 C9        -78.9148   29.0806  -70.2072 C.ar      11 UNK        -0.0687 
     10 C10       -78.9273   27.6834  -70.2590 C.ar      11 UNK        -0.0823 
     11 C11       -77.7334   26.9692  -70.4042 C.ar      11 UNK        -0.0830 
     12 C12       -76.5206   27.6620  -70.4738 C.ar      11 UNK        -0.1021 
     13 C13       -76.4936   29.0586  -70.4225 C.ar      11 UNK        -0.0753 
     14 C14       -77.6961   29.7617  -70.2960 C.ar      11 UNK        -0.0933 
     15 C15       -75.1651   29.8044  -70.4395 C.3       11 UNK         0.0166 
     16 S16       -74.1670   29.4613  -71.9269 S.3       11 UNK        -0.2615 
     17 C17       -72.6689   30.4310  -71.5347 C.3       11 UNK        -0.0865 
     18 CA        -72.3187   31.4660  -72.6363 C.3       10 UNK         0.0862 
     19 C         -71.3337   32.5432  -72.0894 C.2       10 UNK         0.5551 
     20 N         -70.1009   32.6321  -72.5746 N.am      10 UNK        -0.7319 
     21 O         -71.7010   33.3165  -71.2082 O.2       10 UNK        -0.5018 
     22 N         -71.8688   30.8006  -73.8718 N.am      10 UNK        -0.4509 
     23 C         -71.8308   31.3721  -75.0834 C.2       10 UNK         0.4899 
     24 O         -72.2544   32.5045  -75.3167 O.2       10 UNK        -0.4839 
     25 CA        -71.1848   30.5688  -76.2296 C.3       9 UNK         0.0222 
     26 CB        -69.8233   31.1777  -76.6068 C.3       9 UNK        -0.1966 
     27 N         -70.9994   29.1467  -75.9197 N.am      9 UNK        -0.4218 
     28 C         -71.9671   28.2250  -75.9979 C.2       9 UNK         0.5020 
     29 O         -73.1212   28.4720  -76.3550 O.2       9 UNK        -0.5274 
     30 CA        -71.5781   26.8031  -75.5677 C.3       8 UNK         0.0270 
     31 CB        -71.7577   26.6396  -74.0482 C.3       8 UNK        -0.1976 
     32 N         -72.4280   25.8317  -76.2531 N.am      8 UNK        -0.4313 
     33 C         -72.0784   25.1368  -77.3451 C.2       8 UNK         0.5041 
     34 O         -70.9491   25.1634  -77.8373 O.2       8 UNK        -0.5577 
     35 CA        -73.1583   24.2613  -78.0145 C.3       7 UNK         0.0284 
     36 CB        -73.0179   22.7971  -77.5686 C.3       7 UNK        -0.1958 
     37 N         -74.5205   24.7166  -77.7354 N.am      7 UNK        -0.4454 
     38 C         -75.0533   25.8584  -78.1920 C.2       7 UNK         0.5089 
     39 O         -74.5171   26.5608  -79.0499 O.2       7 UNK        -0.5125 
     40 CA        -76.3967   26.3109  -77.5852 C.3       6 UNK         0.0408 
     41 CB        -77.5226   26.2107  -78.6269 C.3       6 UNK        -0.1791 
     42 N         -76.8134   25.5968  -76.3728 N.am      6 UNK        -0.4762 
     43 C         -76.1502   25.5346  -75.2079 C.2       6 UNK         0.5007 
     44 O         -75.0397   26.0287  -75.0217 O.2       6 UNK        -0.5032 
     45 CA        -76.8235   24.7409  -74.0746 C.3       5 UNK         0.0783 
     46 C46       -77.8202   25.6517  -73.3244 C.3       11 UNK        -0.0857 
     47 S47       -78.6680   24.8303  -71.9334 S.3       11 UNK        -0.2512 
     48 C48       -77.7451   25.4481  -70.4880 C.3       11 UNK         0.0225 
     49 N         -77.4475   23.5157  -74.5847 N.am      5 UNK        -0.4615 
     50 C         -76.7753   22.4408  -75.0178 C.2       4 UNK         0.5053 
     51 O         -75.5475   22.3581  -75.0176 O.2       4 UNK        -0.5105 
     52 CA        -77.6109   21.2613  -75.5448 C.3       4 UNK         0.0263 
     53 CB        -78.0231   20.3370  -74.3878 C.3       4 UNK        -0.1981 
     54 N         -78.8068   21.6973  -76.2693 N.am      4 UNK        -0.4224 
     55 C         -78.7938   22.2420  -77.4948 C.2       3 UNK         0.4895 
     56 O         -77.7799   22.3606  -78.1830 O.2       3 UNK        -0.5091 
     57 CA        -80.1377   22.7733  -78.0318 C.3       3 UNK         0.0250 
     58 CB        -80.8922   21.6673  -78.7871 C.3       3 UNK        -0.1996 
     59 N         -81.0109   23.3456  -76.9965 N.am      3 UNK        -0.4254 
     60 C         -80.6752   24.3849  -76.2204 C.2       2 UNK         0.5004 
     61 O         -79.5863   24.9581  -76.2934 O.2       2 UNK        -0.5226 
     62 CA        -81.6863   24.8230  -75.1536 C.3       2 UNK         0.0269 
     63 CB        -81.8047   23.7524  -74.0485 C.3       2 UNK        -0.1926 
     64 N         -81.2196   26.0913  -74.5967 N.am      2 UNK        -0.4687 
     65 C         -81.8745   26.9101  -73.7698 C.2       1 UNK         0.5165 
     66 O         -83.0231   26.7002  -73.3745 O.2       1 UNK        -0.5079 
     67 H67       -80.8608   30.6994  -76.4846 H         1 UNK         0.0900 
     68 H68       -80.1226   29.4818  -77.5286 H         1 UNK         0.0900 
     69 H69       -79.1031   30.5680  -76.5811 H         1 UNK         0.0900 
     70 H70       -81.6785   29.8060  -74.5956 H         1 UNK         0.2959 
     71 H71       -80.1346   27.8900  -73.0113 H         1 UNK         0.1079 
     72 H72       -82.8280   29.2214  -72.4376 H         1 UNK         0.0837 
     73 H73       -81.9355   28.2260  -71.3220 H         1 UNK         0.0837 
     74 H74       -80.0122   30.7437  -69.4102 H         1 UNK         0.0685 
     75 H75       -80.9380   29.2715  -69.4605 H         1 UNK         0.0685 
     76 H76       -79.8650   27.1488  -70.1925 H         1 UNK         0.1434 
     77 H77       -75.5913   27.1172  -70.5708 H         1 UNK         0.1329 
     78 H78       -77.6855   30.8421  -70.2459 H         1 UNK         0.1335 
     79 H79       -75.3285   30.8812  -70.3689 H         1 UNK         0.0680 
     80 H80       -74.5967   29.5175  -69.5535 H         1 UNK         0.0680 
     81 H81       -71.8364   29.7434  -71.3755 H         1 UNK         0.1032 
     82 H82       -72.8202   30.9307  -70.5756 H         1 UNK         0.1032 
     83 H83       -73.2344   32.0101  -72.8769 H         1 UNK         0.0461 
     84 H84       -69.4774   33.3365  -72.2126 H         1 UNK         0.3453 
     85 H85       -69.7888   32.0041  -73.2967 H         1 UNK         0.3453 
     86 H86       -71.5154   29.8623  -73.7701 H         1 UNK         0.2984 
     87 H87       -71.8427   30.6560  -77.0971 H         1 UNK         0.0554 
     88 H88       -69.3866   30.6707  -77.4676 H         1 UNK         0.0847 
     89 H89       -69.1092   31.1196  -75.7846 H         1 UNK         0.0847 
     90 H90       -69.9259   32.2305  -76.8742 H         1 UNK         0.0847 
     91 H91       -70.0768   28.8627  -75.6205 H         1 UNK         0.3141 
     92 H92       -70.5291   26.6280  -75.8160 H         1 UNK         0.0743 
     93 H93       -71.0910   27.3048  -73.4986 H         1 UNK         0.0784 
     94 H94       -72.7772   26.8693  -73.7339 H         1 UNK         0.0784 
     95 H95       -71.5323   25.6216  -73.7300 H         1 UNK         0.0784 
     96 H96       -73.4002   25.8243  -75.9499 H         1 UNK         0.3213 
     97 H97       -72.9992   24.3094  -79.0940 H         1 UNK         0.0855 
     98 H98       -72.0244   22.4120  -77.8025 H         1 UNK         0.0814 
     99 H99       -73.7411   22.1561  -78.0732 H         1 UNK         0.0814 
    100 H100      -73.1653   22.6874  -76.4933 H         1 UNK         0.0814 
    101 H101      -75.0434   24.1983  -77.0431 H         1 UNK         0.3105 
    102 H102      -76.2799   27.3612  -77.3109 H         1 UNK         0.0547 
    103 H103      -77.2687   26.7565  -79.5365 H         1 UNK         0.0837 
    104 H104      -77.7164   25.1750  -78.9083 H         1 UNK         0.0837 
    105 H105      -78.4520   26.6344  -78.2452 H         1 UNK         0.0837 
    106 H106      -77.7537   25.2051  -76.3958 H         1 UNK         0.3020 
    107 H107      -76.0377   24.4499  -73.3735 H         1 UNK         0.1245 
    108 H108      -78.5909   25.9986  -74.0087 H         1 UNK         0.0781 
    109 H109      -77.3180   26.5553  -72.9772 H         1 UNK         0.0781 
    110 H110      -76.7293   25.0514  -70.5263 H         1 UNK         0.0836 
    111 H111      -78.1970   25.0443  -69.5811 H         1 UNK         0.0836 
    112 H112      -78.4536   23.5266  -74.6512 H         1 UNK         0.3022 
    113 H113      -76.9821   20.6892  -76.2307 H         1 UNK         0.0747 
    114 H114      -78.5571   19.4591  -74.7521 H         1 UNK         0.0793 
    115 H115      -77.1470   19.9790  -73.8450 H         1 UNK         0.0793 
    116 H116      -78.6652   20.8475  -73.6687 H         1 UNK         0.0793 
    117 H117      -79.6904   21.6221  -75.7875 H         1 UNK         0.3047 
    118 H118      -79.9067   23.5720  -78.7401 H         1 UNK         0.0822 
    119 H119      -81.7939   22.0544  -79.2620 H         1 UNK         0.0807 
    120 H120      -81.1839   20.8508  -78.1253 H         1 UNK         0.0807 
    121 H121      -80.2712   21.2408  -79.5763 H         1 UNK         0.0807 
    122 H122      -81.9189   22.9182  -76.8804 H         1 UNK         0.2946 
    123 H123      -82.6553   24.9819  -75.6312 H         1 UNK         0.1144 
    124 H124      -82.5097   24.0492  -73.2723 H         1 UNK         0.0793 
    125 H125      -80.8451   23.5611  -73.5681 H         1 UNK         0.0793 
    126 H126      -82.1627   22.8043  -74.4509 H         1 UNK         0.0793 
    127 H127      -80.3122   26.3840  -74.9531 H         1 UNK         0.2896 
@<TRIPOS>BOND
     1    1    2 1    
     2    1   67 1    
     3    1   68 1    
     4    1   69 1    
     5    2    3 2    
     6    2    4 am   BACKBONE|DICT|INTERRES
     7    4    5 1    
     8    4   70 1    
     9    5    6 1    
    10    5   65 1    
    11    5   71 1    
    12    6    7 1    
    13    6   72 1    
    14    6   73 1    
    15    7    8 1    
    16    8    9 1    
    17    8   74 1    
    18    8   75 1    
    19    9   10 ar   
    20    9   14 ar   
    21   10   11 ar   
    22   10   76 1    
    23   11   12 ar   
    24   11   48 1    
    25   12   13 ar   
    26   12   77 1    
    27   13   14 ar   
    28   13   15 1    
    29   14   78 1    
    30   15   16 1    
    31   15   79 1    
    32   15   80 1    
    33   16   17 1    
    34   17   18 1    
    35   17   81 1    
    36   17   82 1    
    37   18   19 1    
    38   18   22 1    
    39   18   83 1    
    40   19   20 am   BACKBONE|DICT|INTERRES
    41   19   21 2    
    42   20   84 1    
    43   20   85 1    
    44   22   23 am   BACKBONE|DICT|INTERRES
    45   22   86 1    
    46   23   24 2    
    47   23   25 1    
    48   25   26 1    
    49   25   27 1    
    50   25   87 1    
    51   26   88 1    
    52   26   89 1    
    53   26   90 1    
    54   27   28 am   BACKBONE|DICT|INTERRES
    55   27   91 1    
    56   28   29 2    
    57   28   30 1    
    58   30   31 1    
    59   30   32 1    
    60   30   92 1    
    61   31   93 1    
    62   31   94 1    
    63   31   95 1    
    64   32   33 am   BACKBONE|DICT|INTERRES
    65   32   96 1    
    66   33   34 2    
    67   33   35 1    
    68   35   36 1    
    69   35   37 1    
    70   35   97 1    
    71   36   98 1    
    72   36   99 1    
    73   36  100 1    
    74   37   38 am   BACKBONE|DICT|INTERRES
    75   37  101 1    
    76   38   39 2    
    77   38   40 1    
    78   40   41 1    
    79   40   42 1    
    80   40  102 1    
    81   41  103 1    
    82   41  104 1    
    83   41  105 1    
    84   42   43 am   BACKBONE|DICT|INTERRES
    85   42  106 1    
    86   43   44 2    
    87   43   45 1    
    88   45   46 1    
    89   45   49 1    
    90   45  107 1    
    91   46   47 1    
    92   46  108 1    
    93   46  109 1    
    94   47   48 1    
    95   48  110 1    
    96   48  111 1    
    97   49   50 am   BACKBONE|DICT|INTERRES
    98   49  112 1    
    99   50   51 2    
   100   50   52 1    
   101   52   53 1    
   102   52   54 1    
   103   52  113 1    
   104   53  114 1    
   105   53  115 1    
   106   53  116 1    
   107   54   55 am   BACKBONE|DICT|INTERRES
   108   54  117 1    
   109   55   56 2    
   110   55   57 1    
   111   57   58 1    
   112   57   59 1    
   113   57  118 1    
   114   58  119 1    
   115   58  120 1    
   116   58  121 1    
   117   59   60 am   BACKBONE|DICT|INTERRES
   118   59  122 1    
   119   60   61 2    
   120   60   62 1    
   121   62   63 1    
   122   62   64 1    
   123   62  123 1    
   124   63  124 1    
   125   63  125 1    
   126   63  126 1    
   127   64   65 am   BACKBONE|DICT|INTERRES
   128   64  127 1    
   129   65   66 2    
@<TRIPOS>SUBSTRUCTURE
     1 UNK         1 GROUP             0       ****    0 ROOT    
