@<TRIPOS>MOLECULE
3R135
127   129    1
SMALL
USER_CHARGES


@<TRIPOS>ATOM
      1 CA        -78.4654   26.9971  -78.2860 C.3       0 UNK        -0.1998 
      2 C         -78.7674   26.7740  -76.8130 C.2       0 UNK         0.4909 
      3 O         -78.7364   25.6335  -76.3495 O.2       0 UNK        -0.5240 
      4 N         -79.0656   27.8590  -76.0833 N.am      1 UNK        -0.4739 
      5 CA        -79.5027   27.8627  -74.6820 C.3       1 UNK         0.0864 
      6 C6        -79.6270   29.3184  -74.1577 C.3       11 UNK        -0.0881 
      7 S7        -80.2119   29.4593  -72.4309 S.3       11 UNK        -0.2682 
      8 C8        -78.7105   29.9970  -71.5493 C.3       11 UNK         0.0289 
      9 C9        -77.5986   28.9546  -71.5623 C.ar      11 UNK        -0.0687 
     10 C10       -77.8577   27.6278  -71.2010 C.ar      11 UNK        -0.0823 
     11 C11       -76.8351   26.6758  -71.2151 C.ar      11 UNK        -0.0830 
     12 C12       -75.5343   27.0692  -71.5407 C.ar      11 UNK        -0.1021 
     13 C13       -75.2586   28.3929  -71.8914 C.ar      11 UNK        -0.0753 
     14 C14       -76.2980   29.3278  -71.9158 C.ar      11 UNK        -0.0933 
     15 C15       -73.8420   28.7910  -72.2747 C.3       11 UNK         0.0166 
     16 S16       -72.8944   29.4423  -70.8639 S.3       11 UNK        -0.2615 
     17 C17       -73.2645   31.2325  -70.9519 C.3       11 UNK        -0.0865 
     18 CA        -72.1881   32.0628  -71.7039 C.3       10 UNK         0.0862 
     19 C         -70.8770   32.2241  -70.8774 C.2       10 UNK         0.5551 
     20 N         -69.7228   31.7846  -71.3647 N.am      10 UNK        -0.7319 
     21 O         -70.9086   32.7738  -69.7790 O.2       10 UNK        -0.5018 
     22 N         -72.0073   31.5802  -73.0829 N.am      10 UNK        -0.4509 
     23 C         -71.5331   32.3012  -74.1065 C.2       10 UNK         0.4899 
     24 O         -71.2094   33.4858  -74.0224 O.2       10 UNK        -0.4839 
     25 CA        -71.3938   31.5760  -75.4559 C.3       9 UNK         0.0222 
     26 CB        -69.9900   30.9648  -75.5935 C.3       9 UNK        -0.1966 
     27 N         -72.3962   30.5233  -75.6413 N.am      9 UNK        -0.4218 
     28 C         -73.6719   30.7183  -75.9963 C.2       9 UNK         0.5020 
     29 O         -74.1407   31.8335  -76.2311 O.2       9 UNK        -0.5274 
     30 CA        -74.5738   29.4648  -76.1121 C.3       8 UNK         0.0270 
     31 CB        -75.8944   29.7585  -76.8467 C.3       8 UNK        -0.1976 
     32 N         -73.9363   28.3023  -76.7449 N.am      8 UNK        -0.4313 
     33 C         -72.9605   27.5423  -76.2330 C.2       8 UNK         0.5041 
     34 O         -72.4141   27.7821  -75.1548 O.2       8 UNK        -0.5577 
     35 CA        -72.5304   26.3204  -77.0648 C.3       7 UNK         0.0284 
     36 CB        -71.3221   25.5870  -76.4536 C.3       7 UNK        -0.1958 
     37 N         -73.6293   25.3665  -77.2206 N.am      7 UNK        -0.4454 
     38 C         -74.6504   25.4758  -78.0760 C.2       7 UNK         0.5089 
     39 O         -74.7893   26.4312  -78.8411 O.2       7 UNK        -0.5125 
     40 CA        -75.7000   24.3495  -78.0716 C.3       6 UNK         0.0408 
     41 CB        -75.1525   23.0720  -78.7359 C.3       6 UNK        -0.1791 
     42 N         -76.2868   24.0611  -76.7556 N.am      6 UNK        -0.4762 
     43 C         -75.7029   23.5598  -75.6555 C.2       6 UNK         0.5007 
     44 O         -74.5035   23.2920  -75.5675 O.2       6 UNK        -0.5032 
     45 CA        -76.6308   23.2982  -74.4540 C.3       5 UNK         0.0783 
     46 C46       -76.8734   24.6069  -73.6648 C.3       11 UNK        -0.0857 
     47 S47       -78.0403   24.4173  -72.2724 S.3       11 UNK        -0.2512 
     48 C48       -77.1397   25.2175  -70.9042 C.3       11 UNK         0.0225 
     49 N         -77.8709   22.6373  -74.8768 N.am      5 UNK        -0.4615 
     50 C         -77.9373   21.3681  -75.3049 C.2       4 UNK         0.5053 
     51 O         -76.9563   20.6287  -75.3925 O.2       4 UNK        -0.5105 
     52 CA        -79.3196   20.8005  -75.6698 C.3       4 UNK         0.0263 
     53 CB        -79.8106   19.8439  -74.5706 C.3       4 UNK        -0.1981 
     54 N         -80.3392   21.8257  -75.8849 N.am      4 UNK        -0.4224 
     55 C         -80.4721   22.5772  -76.9823 C.2       3 UNK         0.4895 
     56 O         -79.7260   22.4986  -77.9585 O.2       3 UNK        -0.5091 
     57 CA        -81.6400   23.5807  -77.0015 C.3       3 UNK         0.0250 
     58 CB        -82.9680   22.8784  -77.3438 C.3       3 UNK        -0.1996 
     59 N         -81.7662   24.4032  -75.7890 N.am      3 UNK        -0.4254 
     60 C         -82.0336   24.0480  -74.5231 C.2       2 UNK         0.5004 
     61 O         -82.2579   22.8871  -74.1750 O.2       2 UNK        -0.5226 
     62 CA        -82.0011   25.1739  -73.4659 C.3       2 UNK         0.0269 
     63 CB        -81.9596   24.6296  -72.0255 C.3       2 UNK        -0.1926 
     64 N         -80.8658   26.0839  -73.6576 N.am      2 UNK        -0.4687 
     65 C         -80.8257   27.0785  -74.5536 C.2       1 UNK         0.5165 
     66 O         -81.7692   27.3550  -75.2988 O.2       1 UNK        -0.5079 
     67 H67       -77.3904   27.0509  -78.4475 H         1 UNK         0.0900 
     68 H68       -78.9125   27.9209  -78.6525 H         1 UNK         0.0900 
     69 H69       -78.8605   26.1738  -78.8808 H         1 UNK         0.0900 
     70 H70       -79.0982   28.7567  -76.5440 H         1 UNK         0.2959 
     71 H71       -78.7347   27.3528  -74.0968 H         1 UNK         0.1079 
     72 H72       -78.6647   29.8248  -74.2504 H         1 UNK         0.0837 
     73 H73       -80.3201   29.8839  -74.7836 H         1 UNK         0.0837 
     74 H74       -78.3696   30.9396  -71.9804 H         1 UNK         0.0685 
     75 H75       -78.9729   30.2104  -70.5124 H         1 UNK         0.0685 
     76 H76       -78.8618   27.3293  -70.9319 H         1 UNK         0.1434 
     77 H77       -74.7354   26.3402  -71.5404 H         1 UNK         0.1329 
     78 H78       -76.0953   30.3493  -72.2033 H         1 UNK         0.1335 
     79 H79       -73.3124   27.9236  -72.6708 H         1 UNK         0.0680 
     80 H80       -73.8637   29.5251  -73.0777 H         1 UNK         0.0680 
     81 H81       -73.3927   31.6060  -69.9341 H         1 UNK         0.1032 
     82 H82       -74.2323   31.3826  -71.4282 H         1 UNK         0.1032 
     83 H83       -72.5882   33.0756  -71.7828 H         1 UNK         0.0461 
     84 H84       -68.8809   31.9003  -70.8230 H         1 UNK         0.3453 
     85 H85       -69.6884   31.3341  -72.2641 H         1 UNK         0.3453 
     86 H86       -72.2043   30.6026  -73.2319 H         1 UNK         0.2984 
     87 H87       -71.5189   32.3186  -76.2468 H         1 UNK         0.0554 
     88 H88       -69.8473   30.5202  -76.5787 H         1 UNK         0.0847 
     89 H89       -69.8091   30.1894  -74.8479 H         1 UNK         0.0847 
     90 H90       -69.2180   31.7256  -75.4688 H         1 UNK         0.0847 
     91 H91       -72.1197   29.5626  -75.4421 H         1 UNK         0.3141 
     92 H92       -74.8376   29.1729  -75.0953 H         1 UNK         0.0743 
     93 H93       -75.7206   30.0813  -77.8740 H         1 UNK         0.0784 
     94 H94       -76.5305   28.8760  -76.8752 H         1 UNK         0.0784 
     95 H95       -76.4597   30.5451  -76.3450 H         1 UNK         0.0784 
     96 H96       -74.3158   28.0085  -77.6399 H         1 UNK         0.3213 
     97 H97       -72.2350   26.6849  -78.0512 H         1 UNK         0.0855 
     98 H98       -70.4714   26.2605  -76.3412 H         1 UNK         0.0814 
     99 H99       -70.9981   24.7604  -77.0862 H         1 UNK         0.0814 
    100 H100      -71.5523   25.1837  -75.4665 H         1 UNK         0.0814 
    101 H101      -73.6532   24.5762  -76.5792 H         1 UNK         0.3105 
    102 H102      -76.5317   24.6953  -78.6868 H         1 UNK         0.0547 
    103 H103      -74.8018   23.2797  -79.7476 H         1 UNK         0.0837 
    104 H104      -74.3137   22.6468  -78.1841 H         1 UNK         0.0837 
    105 H105      -75.9244   22.3060  -78.8117 H         1 UNK         0.0837 
    106 H106      -77.2682   24.3148  -76.6694 H         1 UNK         0.3020 
    107 H107      -76.1050   22.6072  -73.7905 H         1 UNK         0.1245 
    108 H108      -77.2539   25.3975  -74.3101 H         1 UNK         0.0781 
    109 H109      -75.9174   24.9708  -73.2874 H         1 UNK         0.0781 
    110 H110      -76.2233   24.6610  -70.7013 H         1 UNK         0.0836 
    111 H111      -77.7423   25.1563  -69.9969 H         1 UNK         0.0836 
    112 H112      -78.7146   23.1898  -74.8388 H         1 UNK         0.3022 
    113 H113      -79.2037   20.2303  -76.5939 H         1 UNK         0.0747 
    114 H114      -80.7555   19.3750  -74.8461 H         1 UNK         0.0793 
    115 H115      -79.0910   19.0424  -74.3975 H         1 UNK         0.0793 
    116 H116      -79.9572   20.3625  -73.6221 H         1 UNK         0.0793 
    117 H117      -81.0110   21.9830  -75.1349 H         1 UNK         0.3047 
    118 H118      -81.4251   24.2854  -77.8067 H         1 UNK         0.0822 
    119 H119      -83.7802   23.5977  -77.4489 H         1 UNK         0.0807 
    120 H120      -83.2580   22.1554  -76.5808 H         1 UNK         0.0807 
    121 H121      -82.8897   22.3381  -78.2882 H         1 UNK         0.0807 
    122 H122      -81.5880   25.3909  -75.9339 H         1 UNK         0.2946 
    123 H123      -82.9298   25.7380  -73.5801 H         1 UNK         0.1144 
    124 H124      -81.9495   25.4387  -71.2950 H         1 UNK         0.0793 
    125 H125      -81.0789   24.0100  -71.8531 H         1 UNK         0.0793 
    126 H126      -82.8361   24.0159  -71.8130 H         1 UNK         0.0793 
    127 H127      -80.0368   25.8785  -73.1164 H         1 UNK         0.2896 
@<TRIPOS>BOND
     1    1    2 1    
     2    1   67 1    
     3    1   68 1    
     4    1   69 1    
     5    2    3 2    
     6    2    4 am   BACKBONE|DICT|INTERRES
     7    4    5 1    
     8    4   70 1    
     9    5    6 1    
    10    5   65 1    
    11    5   71 1    
    12    6    7 1    
    13    6   72 1    
    14    6   73 1    
    15    7    8 1    
    16    8    9 1    
    17    8   74 1    
    18    8   75 1    
    19    9   10 ar   
    20    9   14 ar   
    21   10   11 ar   
    22   10   76 1    
    23   11   12 ar   
    24   11   48 1    
    25   12   13 ar   
    26   12   77 1    
    27   13   14 ar   
    28   13   15 1    
    29   14   78 1    
    30   15   16 1    
    31   15   79 1    
    32   15   80 1    
    33   16   17 1    
    34   17   18 1    
    35   17   81 1    
    36   17   82 1    
    37   18   19 1    
    38   18   22 1    
    39   18   83 1    
    40   19   20 am   BACKBONE|DICT|INTERRES
    41   19   21 2    
    42   20   84 1    
    43   20   85 1    
    44   22   23 am   BACKBONE|DICT|INTERRES
    45   22   86 1    
    46   23   24 2    
    47   23   25 1    
    48   25   26 1    
    49   25   27 1    
    50   25   87 1    
    51   26   88 1    
    52   26   89 1    
    53   26   90 1    
    54   27   28 am   BACKBONE|DICT|INTERRES
    55   27   91 1    
    56   28   29 2    
    57   28   30 1    
    58   30   31 1    
    59   30   32 1    
    60   30   92 1    
    61   31   93 1    
    62   31   94 1    
    63   31   95 1    
    64   32   33 am   BACKBONE|DICT|INTERRES
    65   32   96 1    
    66   33   34 2    
    67   33   35 1    
    68   35   36 1    
    69   35   37 1    
    70   35   97 1    
    71   36   98 1    
    72   36   99 1    
    73   36  100 1    
    74   37   38 am   BACKBONE|DICT|INTERRES
    75   37  101 1    
    76   38   39 2    
    77   38   40 1    
    78   40   41 1    
    79   40   42 1    
    80   40  102 1    
    81   41  103 1    
    82   41  104 1    
    83   41  105 1    
    84   42   43 am   BACKBONE|DICT|INTERRES
    85   42  106 1    
    86   43   44 2    
    87   43   45 1    
    88   45   46 1    
    89   45   49 1    
    90   45  107 1    
    91   46   47 1    
    92   46  108 1    
    93   46  109 1    
    94   47   48 1    
    95   48  110 1    
    96   48  111 1    
    97   49   50 am   BACKBONE|DICT|INTERRES
    98   49  112 1    
    99   50   51 2    
   100   50   52 1    
   101   52   53 1    
   102   52   54 1    
   103   52  113 1    
   104   53  114 1    
   105   53  115 1    
   106   53  116 1    
   107   54   55 am   BACKBONE|DICT|INTERRES
   108   54  117 1    
   109   55   56 2    
   110   55   57 1    
   111   57   58 1    
   112   57   59 1    
   113   57  118 1    
   114   58  119 1    
   115   58  120 1    
   116   58  121 1    
   117   59   60 am   BACKBONE|DICT|INTERRES
   118   59  122 1    
   119   60   61 2    
   120   60   62 1    
   121   62   63 1    
   122   62   64 1    
   123   62  123 1    
   124   63  124 1    
   125   63  125 1    
   126   63  126 1    
   127   64   65 am   BACKBONE|DICT|INTERRES
   128   64  127 1    
   129   65   66 2    
@<TRIPOS>SUBSTRUCTURE
     1 UNK         1 GROUP             0       ****    0 ROOT    
