@<TRIPOS>MOLECULE
3R135
127   129    1
SMALL
USER_CHARGES


@<TRIPOS>ATOM
      1 CA        -81.9036   22.9983  -72.1980 C.3       0 UNK        -0.1998 
      2 C         -80.6535   23.3824  -71.4108 C.2       0 UNK         0.4909 
      3 O         -79.9079   22.4980  -70.9957 O.2       0 UNK        -0.5240 
      4 N         -80.3841   24.6719  -71.1667 N.am      1 UNK        -0.4739 
      5 CA        -81.1022   25.8423  -71.6797 C.3       1 UNK         0.0864 
      6 C6        -80.9046   27.0513  -70.7357 C.3       11 UNK        -0.0881 
      7 S7        -82.0217   28.4439  -71.1169 S.3       11 UNK        -0.2682 
      8 C8        -81.0766   29.8628  -70.4719 C.3       11 UNK         0.0289 
      9 C9        -79.8047   30.1187  -71.2688 C.ar      11 UNK        -0.0687 
     10 C10       -79.8783   30.6702  -72.5514 C.ar      11 UNK        -0.0823 
     11 C11       -78.7181   30.8925  -73.3006 C.ar      11 UNK        -0.0830 
     12 C12       -77.4745   30.5792  -72.7412 C.ar      11 UNK        -0.1021 
     13 C13       -77.3901   30.0074  -71.4693 C.ar      11 UNK        -0.0753 
     14 C14       -78.5561   29.7920  -70.7307 C.ar      11 UNK        -0.0933 
     15 C15       -76.0423   29.5621  -70.9301 C.3       11 UNK         0.0166 
     16 S16       -75.6383   27.9317  -71.6185 S.3       11 UNK        -0.2615 
     17 C17       -73.9410   27.6485  -71.0214 C.3       11 UNK        -0.0865 
     18 CA        -72.8607   28.4846  -71.7588 C.3       10 UNK         0.0862 
     19 C         -71.4376   28.1538  -71.2159 C.2       10 UNK         0.5551 
     20 N         -70.4825   27.7268  -72.0340 N.am      10 UNK        -0.7319 
     21 O         -71.1939   28.2941  -70.0199 O.2       10 UNK        -0.5018 
     22 N         -72.9913   28.4251  -73.2261 N.am      10 UNK        -0.4509 
     23 C         -72.4903   29.3509  -74.0545 C.2       10 UNK         0.4899 
     24 O         -71.9329   30.3798  -73.6673 O.2       10 UNK        -0.4839 
     25 CA        -72.6272   29.0802  -75.5657 C.3       9 UNK         0.0222 
     26 CB        -71.7074   29.9786  -76.4187 C.3       9 UNK        -0.1966 
     27 N         -72.4420   27.6727  -75.9451 N.am      9 UNK        -0.4218 
     28 C         -71.3912   26.8854  -75.6644 C.2       9 UNK         0.5020 
     29 O         -70.4397   27.2315  -74.9621 O.2       9 UNK        -0.5274 
     30 CA        -71.3857   25.4702  -76.2679 C.3       8 UNK         0.0270 
     31 CB        -71.9042   24.4305  -75.2610 C.3       8 UNK        -0.1976 
     32 N         -72.1399   25.3629  -77.5196 N.am      8 UNK        -0.4313 
     33 C         -71.7250   25.8257  -78.7048 C.2       8 UNK         0.5041 
     34 O         -70.6617   26.4258  -78.8667 O.2       8 UNK        -0.5577 
     35 CA        -72.6258   25.5622  -79.9268 C.3       7 UNK         0.0284 
     36 CB        -72.5553   24.0834  -80.3580 C.3       7 UNK        -0.1958 
     37 N         -74.0187   26.0141  -79.7900 N.am      7 UNK        -0.4454 
     38 C         -74.9613   25.5864  -78.9401 C.2       7 UNK         0.5089 
     39 O         -74.7797   24.7233  -78.0788 O.2       7 UNK        -0.5125 
     40 CA        -76.3493   26.2338  -79.0853 C.3       6 UNK         0.0408 
     41 CB        -77.3683   25.2116  -79.6130 C.3       6 UNK        -0.1791 
     42 N         -76.8249   26.7672  -77.8110 N.am      6 UNK        -0.4762 
     43 C         -76.2389   27.7573  -77.1230 C.2       6 UNK         0.5007 
     44 O         -75.2771   28.4006  -77.5428 O.2       6 UNK        -0.5032 
     45 CA        -76.7990   28.0358  -75.7125 C.3       5 UNK         0.0783 
     46 C46       -78.0878   28.8955  -75.7708 C.3       11 UNK        -0.0857 
     47 S47       -77.7017   30.6739  -75.9280 S.3       11 UNK        -0.2512 
     48 C48       -78.8320   31.4499  -74.7177 C.3       11 UNK         0.0225 
     49 N         -77.0034   26.7804  -74.9857 N.am      5 UNK        -0.4615 
     50 C         -76.0191   25.9552  -74.6000 C.2       4 UNK         0.5053 
     51 O         -74.8255   26.2487  -74.6713 O.2       4 UNK        -0.5105 
     52 CA        -76.4219   24.5713  -74.0610 C.3       4 UNK         0.0263 
     53 CB        -76.4330   24.5606  -72.5247 C.3       4 UNK        -0.1981 
     54 N         -77.7405   24.1646  -74.5530 N.am      4 UNK        -0.4224 
     55 C         -77.9503   23.3886  -75.6265 C.2       3 UNK         0.4895 
     56 O         -77.0507   22.8383  -76.2601 O.2       3 UNK        -0.5091 
     57 CA        -79.4085   23.1743  -76.0807 C.3       3 UNK         0.0250 
     58 CB        -79.9461   21.8415  -75.5341 C.3       3 UNK        -0.1996 
     59 N         -80.3242   24.2516  -75.6954 N.am      3 UNK        -0.4254 
     60 C         -80.2630   25.5149  -76.1387 C.2       2 UNK         0.5004 
     61 O         -79.4467   25.9098  -76.9693 O.2       2 UNK        -0.5226 
     62 CA        -81.2315   26.5233  -75.4904 C.3       2 UNK         0.0269 
     63 CB        -82.5469   26.5875  -76.2815 C.3       2 UNK        -0.1926 
     64 N         -81.5247   26.2591  -74.0729 N.am      2 UNK        -0.4687 
     65 C         -80.6017   26.1391  -73.1066 C.2       1 UNK         0.5165 
     66 O         -79.3898   26.2117  -73.3171 O.2       1 UNK        -0.5079 
     67 H67       -81.9480   21.9181  -72.3369 H         1 UNK         0.0900 
     68 H68       -81.9135   23.4558  -73.1848 H         1 UNK         0.0900 
     69 H69       -82.8032   23.2977  -71.6609 H         1 UNK         0.0900 
     70 H70       -79.5350   24.8876  -70.6643 H         1 UNK         0.2959 
     71 H71       -82.1701   25.6187  -71.7114 H         1 UNK         0.1079 
     72 H72       -81.1040   26.7535  -69.7049 H         1 UNK         0.0837 
     73 H73       -79.8644   27.3788  -70.7553 H         1 UNK         0.0837 
     74 H74       -81.7077   30.7519  -70.5083 H         1 UNK         0.0685 
     75 H75       -80.8485   29.6937  -69.4182 H         1 UNK         0.0685 
     76 H76       -80.8466   30.9078  -72.9706 H         1 UNK         0.1434 
     77 H77       -76.5698   30.7352  -73.3125 H         1 UNK         0.1329 
     78 H78       -78.4926   29.3428  -69.7491 H         1 UNK         0.1335 
     79 H79       -75.2750   30.2859  -71.2075 H         1 UNK         0.0680 
     80 H80       -76.0542   29.5109  -69.8404 H         1 UNK         0.0680 
     81 H81       -73.9152   27.8471  -69.9482 H         1 UNK         0.1032 
     82 H82       -73.7292   26.5839  -71.1351 H         1 UNK         0.1032 
     83 H83       -73.0315   29.5239  -71.4731 H         1 UNK         0.0461 
     84 H84       -69.5706   27.5236  -71.6577 H         1 UNK         0.3453 
     85 H85       -70.6466   27.6254  -73.0306 H         1 UNK         0.3453 
     86 H86       -73.4611   27.6141  -73.6131 H         1 UNK         0.2984 
     87 H87       -73.6559   29.3385  -75.8117 H         1 UNK         0.0554 
     88 H88       -71.8553   29.7974  -77.4834 H         1 UNK         0.0847 
     89 H89       -70.6546   29.8066  -76.1920 H         1 UNK         0.0847 
     90 H90       -71.9124   31.0350  -76.2408 H         1 UNK         0.0847 
     91 H91       -73.2036   27.2639  -76.4701 H         1 UNK         0.3141 
     92 H92       -70.3432   25.2260  -76.4835 H         1 UNK         0.0743 
     93 H93       -71.3945   24.5243  -74.3010 H         1 UNK         0.0784 
     94 H94       -72.9720   24.5382  -75.0765 H         1 UNK         0.0784 
     95 H95       -71.7319   23.4160  -75.6205 H         1 UNK         0.0784 
     96 H96       -73.0595   24.9234  -77.4880 H         1 UNK         0.3213 
     97 H97       -72.2103   26.1529  -80.7452 H         1 UNK         0.0855 
     98 H98       -72.9644   23.4136  -79.6010 H         1 UNK         0.0814 
     99 H99       -71.5227   23.7788  -80.5341 H         1 UNK         0.0814 
    100 H100      -73.1040   23.9148  -81.2846 H         1 UNK         0.0814 
    101 H101      -74.2786   26.7602  -80.4212 H         1 UNK         0.3105 
    102 H102      -76.2914   27.0616  -79.7949 H         1 UNK         0.0547 
    103 H103      -78.3495   25.6651  -79.7543 H         1 UNK         0.0837 
    104 H104      -77.0544   24.8062  -80.5756 H         1 UNK         0.0837 
    105 H105      -77.4855   24.3716  -78.9264 H         1 UNK         0.0837 
    106 H106      -77.6392   26.3123  -77.4049 H         1 UNK         0.3020 
    107 H107      -76.0368   28.5882  -75.1577 H         1 UNK         0.1245 
    108 H108      -78.6719   28.7405  -74.8631 H         1 UNK         0.0781 
    109 H109      -78.7411   28.5976  -76.5931 H         1 UNK         0.0781 
    110 H110      -78.6308   32.5214  -74.6880 H         1 UNK         0.0836 
    111 H111      -79.8519   31.3385  -75.0893 H         1 UNK         0.0836 
    112 H112      -77.9598   26.5130  -74.7928 H         1 UNK         0.3022 
    113 H113      -75.6647   23.8593  -74.3961 H         1 UNK         0.0747 
    114 H114      -76.6905   23.5751  -72.1362 H         1 UNK         0.0793 
    115 H115      -77.1482   25.2776  -72.1201 H         1 UNK         0.0793 
    116 H116      -75.4508   24.8204  -72.1284 H         1 UNK         0.0793 
    117 H117      -78.5319   24.6095  -74.1010 H         1 UNK         0.3047 
    118 H118      -79.4023   23.1212  -77.1717 H         1 UNK         0.0822 
    119 H119      -79.3119   21.0097  -75.8443 H         1 UNK         0.0807 
    120 H120      -80.9506   21.6344  -75.9039 H         1 UNK         0.0807 
    121 H121      -79.9787   21.8347  -74.4438 H         1 UNK         0.0807 
    122 H122      -81.0427   24.0206  -75.0272 H         1 UNK         0.2946 
    123 H123      -80.7564   27.5044  -75.5441 H         1 UNK         0.1144 
    124 H124      -82.3587   26.8026  -77.3346 H         1 UNK         0.0793 
    125 H125      -83.1989   27.3758  -75.9048 H         1 UNK         0.0793 
    126 H126      -83.0949   25.6456  -76.2341 H         1 UNK         0.0793 
    127 H127      -82.5022   26.2065  -73.8229 H         1 UNK         0.2896 
@<TRIPOS>BOND
     1    1    2 1    
     2    1   67 1    
     3    1   68 1    
     4    1   69 1    
     5    2    3 2    
     6    2    4 am   BACKBONE|DICT|INTERRES
     7    4    5 1    
     8    4   70 1    
     9    5    6 1    
    10    5   65 1    
    11    5   71 1    
    12    6    7 1    
    13    6   72 1    
    14    6   73 1    
    15    7    8 1    
    16    8    9 1    
    17    8   74 1    
    18    8   75 1    
    19    9   10 ar   
    20    9   14 ar   
    21   10   11 ar   
    22   10   76 1    
    23   11   12 ar   
    24   11   48 1    
    25   12   13 ar   
    26   12   77 1    
    27   13   14 ar   
    28   13   15 1    
    29   14   78 1    
    30   15   16 1    
    31   15   79 1    
    32   15   80 1    
    33   16   17 1    
    34   17   18 1    
    35   17   81 1    
    36   17   82 1    
    37   18   19 1    
    38   18   22 1    
    39   18   83 1    
    40   19   20 am   BACKBONE|DICT|INTERRES
    41   19   21 2    
    42   20   84 1    
    43   20   85 1    
    44   22   23 am   BACKBONE|DICT|INTERRES
    45   22   86 1    
    46   23   24 2    
    47   23   25 1    
    48   25   26 1    
    49   25   27 1    
    50   25   87 1    
    51   26   88 1    
    52   26   89 1    
    53   26   90 1    
    54   27   28 am   BACKBONE|DICT|INTERRES
    55   27   91 1    
    56   28   29 2    
    57   28   30 1    
    58   30   31 1    
    59   30   32 1    
    60   30   92 1    
    61   31   93 1    
    62   31   94 1    
    63   31   95 1    
    64   32   33 am   BACKBONE|DICT|INTERRES
    65   32   96 1    
    66   33   34 2    
    67   33   35 1    
    68   35   36 1    
    69   35   37 1    
    70   35   97 1    
    71   36   98 1    
    72   36   99 1    
    73   36  100 1    
    74   37   38 am   BACKBONE|DICT|INTERRES
    75   37  101 1    
    76   38   39 2    
    77   38   40 1    
    78   40   41 1    
    79   40   42 1    
    80   40  102 1    
    81   41  103 1    
    82   41  104 1    
    83   41  105 1    
    84   42   43 am   BACKBONE|DICT|INTERRES
    85   42  106 1    
    86   43   44 2    
    87   43   45 1    
    88   45   46 1    
    89   45   49 1    
    90   45  107 1    
    91   46   47 1    
    92   46  108 1    
    93   46  109 1    
    94   47   48 1    
    95   48  110 1    
    96   48  111 1    
    97   49   50 am   BACKBONE|DICT|INTERRES
    98   49  112 1    
    99   50   51 2    
   100   50   52 1    
   101   52   53 1    
   102   52   54 1    
   103   52  113 1    
   104   53  114 1    
   105   53  115 1    
   106   53  116 1    
   107   54   55 am   BACKBONE|DICT|INTERRES
   108   54  117 1    
   109   55   56 2    
   110   55   57 1    
   111   57   58 1    
   112   57   59 1    
   113   57  118 1    
   114   58  119 1    
   115   58  120 1    
   116   58  121 1    
   117   59   60 am   BACKBONE|DICT|INTERRES
   118   59  122 1    
   119   60   61 2    
   120   60   62 1    
   121   62   63 1    
   122   62   64 1    
   123   62  123 1    
   124   63  124 1    
   125   63  125 1    
   126   63  126 1    
   127   64   65 am   BACKBONE|DICT|INTERRES
   128   64  127 1    
   129   65   66 2    
@<TRIPOS>SUBSTRUCTURE
     1 UNK         1 GROUP             0       ****    0 ROOT    
