@<TRIPOS>MOLECULE
3R135
127   129    1
SMALL
USER_CHARGES


@<TRIPOS>ATOM
      1 CA        -80.5089   21.6056  -72.1843 C.3       0 UNK        -0.1998 
      2 C         -81.1071   22.9821  -72.4290 C.2       0 UNK         0.4909 
      3 O         -82.0097   23.1186  -73.2554 O.2       0 UNK        -0.5240 
      4 N         -80.6010   24.0070  -71.7291 N.am      1 UNK        -0.4739 
      5 CA        -81.0173   25.4093  -71.8464 C.3       1 UNK         0.0864 
      6 C6        -80.2951   26.2877  -70.7969 C.3       11 UNK        -0.0881 
      7 S7        -81.1106   27.9019  -70.5714 S.3       11 UNK        -0.2682 
      8 C8        -79.7132   28.9360  -70.0238 C.3       11 UNK         0.0289 
      9 C9        -78.6739   29.1795  -71.1136 C.ar      11 UNK        -0.0687 
     10 C10       -79.0497   29.7256  -72.3451 C.ar      11 UNK        -0.0823 
     11 C11       -78.0931   30.0080  -73.3255 C.ar      11 UNK        -0.0830 
     12 C12       -76.7439   29.7467  -73.0592 C.ar      11 UNK        -0.1021 
     13 C13       -76.3540   29.2029  -71.8323 C.ar      11 UNK        -0.0753 
     14 C14       -77.3233   28.9128  -70.8672 C.ar      11 UNK        -0.0933 
     15 C15       -74.8816   28.9693  -71.5342 C.3       11 UNK         0.0166 
     16 S16       -74.1468   30.4574  -70.7931 S.3       11 UNK        -0.2615 
     17 C17       -72.4353   29.9208  -70.4617 C.3       11 UNK        -0.0865 
     18 CA        -71.4169   30.6019  -71.4156 C.3       10 UNK         0.0862 
     19 C         -69.9651   30.5233  -70.8559 C.2       10 UNK         0.5551 
     20 N         -68.9894   30.0064  -71.5936 N.am      10 UNK        -0.7319 
     21 O         -69.7151   30.9541  -69.7328 O.2       10 UNK        -0.5018 
     22 N         -71.5450   30.0915  -72.7918 N.am      10 UNK        -0.4509 
     23 C         -71.4074   30.8223  -73.9061 C.2       10 UNK         0.4899 
     24 O         -71.2448   32.0431  -73.9034 O.2       10 UNK        -0.4839 
     25 CA        -71.4173   30.0744  -75.2565 C.3       9 UNK         0.0222 
     26 CB        -70.1527   30.4004  -76.0715 C.3       9 UNK        -0.1966 
     27 N         -71.5171   28.6176  -75.1117 N.am      9 UNK        -0.4218 
     28 C         -72.6629   27.9343  -75.0125 C.2       9 UNK         0.5020 
     29 O         -73.7804   28.4471  -75.0751 O.2       9 UNK        -0.5274 
     30 CA        -72.5330   26.4258  -74.7611 C.3       8 UNK         0.0270 
     31 CB        -73.3680   25.9926  -73.5420 C.3       8 UNK        -0.1976 
     32 N         -72.9604   25.6684  -75.9337 N.am      8 UNK        -0.4313 
     33 C         -72.2243   25.4808  -77.0367 C.2       8 UNK         0.5041 
     34 O         -71.0920   25.9436  -77.1840 O.2       8 UNK        -0.5577 
     35 CA        -72.8324   24.6206  -78.1553 C.3       7 UNK         0.0284 
     36 CB        -72.6990   23.1260  -77.8178 C.3       7 UNK        -0.1958 
     37 N         -74.2431   24.9400  -78.3817 N.am      7 UNK        -0.4454 
     38 C         -74.7626   25.3542  -79.5459 C.2       7 UNK         0.5089 
     39 O         -74.1095   25.4770  -80.5831 O.2       7 UNK        -0.5125 
     40 CA        -76.2690   25.6903  -79.5756 C.3       6 UNK         0.0408 
     41 CB        -77.0683   24.5102  -80.1501 C.3       6 UNK        -0.1791 
     42 N         -76.8273   26.0497  -78.2699 N.am      6 UNK        -0.4762 
     43 C         -76.4604   27.1129  -77.5383 C.2       6 UNK         0.5007 
     44 O         -75.6674   27.9633  -77.9428 O.2       6 UNK        -0.5032 
     45 CA        -77.0491   27.2251  -76.1107 C.3       5 UNK         0.0783 
     46 C46       -78.2425   28.2158  -76.0825 C.3       11 UNK        -0.0857 
     47 S47       -77.7129   29.9613  -76.1180 S.3       11 UNK        -0.2512 
     48 C48       -78.5337   30.6463  -74.6403 C.3       11 UNK         0.0225 
     49 N         -77.4332   25.9367  -75.5113 N.am      5 UNK        -0.4615 
     50 C         -76.6827   24.8309  -75.3956 C.2       4 UNK         0.5053 
     51 O         -75.5269   24.7365  -75.8040 O.2       4 UNK        -0.5105 
     52 CA        -77.3533   23.5980  -74.7748 C.3       4 UNK         0.0263 
     53 CB        -77.2387   23.6254  -73.2421 C.3       4 UNK        -0.1981 
     54 N         -78.7565   23.4919  -75.1810 N.am      4 UNK        -0.4224 
     55 C         -79.1598   23.0639  -76.3875 C.2       3 UNK         0.4895 
     56 O         -78.3935   22.6362  -77.2504 O.2       3 UNK        -0.5091 
     57 CA        -80.6644   23.1416  -76.6994 C.3       3 UNK         0.0250 
     58 CB        -81.3579   21.8111  -76.3663 C.3       3 UNK        -0.1996 
     59 N         -81.3279   24.2402  -75.9918 N.am      3 UNK        -0.4254 
     60 C         -81.2252   25.5284  -76.3557 C.2       2 UNK         0.5004 
     61 O         -80.6257   25.9053  -77.3625 O.2       2 UNK        -0.5226 
     62 CA        -81.8621   26.5824  -75.4284 C.3       2 UNK         0.0269 
     63 CB        -83.2911   26.9099  -75.8888 C.3       2 UNK        -0.1926 
     64 N         -81.8841   26.1967  -74.0129 N.am      2 UNK        -0.4687 
     65 C         -80.7937   25.9244  -73.2831 C.2       1 UNK         0.5165 
     66 O         -79.6475   25.9963  -73.7269 O.2       1 UNK        -0.5079 
     67 H67       -81.2961   20.8939  -71.9369 H         1 UNK         0.0900 
     68 H68       -79.9994   21.2528  -73.0805 H         1 UNK         0.0900 
     69 H69       -79.7902   21.6130  -71.3651 H         1 UNK         0.0900 
     70 H70       -79.8508   23.8310  -71.0764 H         1 UNK         0.2959 
     71 H71       -82.0880   25.4343  -71.6311 H         1 UNK         0.1079 
     72 H72       -79.2441   26.4250  -71.0599 H         1 UNK         0.0837 
     73 H73       -80.2992   25.7914  -69.8251 H         1 UNK         0.0837 
     74 H74       -80.1024   29.9006  -69.6952 H         1 UNK         0.0685 
     75 H75       -79.2584   28.4745  -69.1458 H         1 UNK         0.0685 
     76 H76       -80.0925   29.9448  -72.5305 H         1 UNK         0.1434 
     77 H77       -75.9907   29.9810  -73.7999 H         1 UNK         0.1329 
     78 H78       -77.0189   28.5084  -69.9116 H         1 UNK         0.1335 
     79 H79       -74.7626   28.1211  -70.8582 H         1 UNK         0.0680 
     80 H80       -74.3471   28.7197  -72.4507 H         1 UNK         0.0680 
     81 H81       -72.2277   30.1819  -69.4220 H         1 UNK         0.1032 
     82 H82       -72.3555   28.8338  -70.5157 H         1 UNK         0.1032 
     83 H83       -71.6497   31.6685  -71.4210 H         1 UNK         0.0461 
     84 H84       -69.1738   29.6665  -72.5228 H         1 UNK         0.3453 
     85 H85       -68.0546   29.9692  -71.2182 H         1 UNK         0.3453 
     86 H86       -71.6669   29.0957  -72.8872 H         1 UNK         0.2984 
     87 H87       -72.2805   30.4381  -75.8179 H         1 UNK         0.0554 
     88 H88       -70.0733   31.4713  -76.2636 H         1 UNK         0.0847 
     89 H89       -70.1670   29.9028  -77.0415 H         1 UNK         0.0847 
     90 H90       -69.2442   30.0955  -75.5507 H         1 UNK         0.0847 
     91 H91       -70.6462   28.1050  -75.0856 H         1 UNK         0.3141 
     92 H92       -71.4892   26.1816  -74.5513 H         1 UNK         0.0743 
     93 H93       -74.4259   26.2280  -73.6677 H         1 UNK         0.0784 
     94 H94       -73.2851   24.9201  -73.3653 H         1 UNK         0.0784 
     95 H95       -73.0277   26.4969  -72.6370 H         1 UNK         0.0784 
     96 H96       -73.9015   25.2778  -75.8891 H         1 UNK         0.3213 
     97 H97       -72.2491   24.8151  -79.0579 H         1 UNK         0.0855 
     98 H98       -73.2721   22.8587  -76.9288 H         1 UNK         0.0814 
     99 H99       -71.6582   22.8588  -77.6299 H         1 UNK         0.0814 
    100 H100      -73.0498   22.5033  -78.6409 H         1 UNK         0.0814 
    101 H101      -74.8568   24.8841  -77.5736 H         1 UNK         0.3105 
    102 H102      -76.4001   26.5477  -80.2387 H         1 UNK         0.0547 
    103 H103      -76.7060   24.2392  -81.1427 H         1 UNK         0.0837 
    104 H104      -76.9863   23.6233  -79.5202 H         1 UNK         0.0837 
    105 H105      -78.1260   24.7552  -80.2483 H         1 UNK         0.0837 
    106 H106      -77.4906   25.4034  -77.8652 H         1 UNK         0.3020 
    107 H107      -76.2548   27.6204  -75.4741 H         1 UNK         0.1245 
    108 H108      -78.8298   28.0632  -75.1769 H         1 UNK         0.0781 
    109 H109      -78.9305   28.0346  -76.9104 H         1 UNK         0.0781 
    110 H110      -79.6125   30.5497  -74.7729 H         1 UNK         0.0836 
    111 H111      -78.3251   31.7157  -74.5915 H         1 UNK         0.0836 
    112 H112      -78.3428   25.9247  -75.0569 H         1 UNK         0.3022 
    113 H113      -76.8205   22.7144  -75.1336 H         1 UNK         0.0747 
    114 H114      -77.6753   22.7323  -72.7959 H         1 UNK         0.0793 
    115 H115      -76.1925   23.6604  -72.9348 H         1 UNK         0.0793 
    116 H116      -77.7299   24.4956  -72.8069 H         1 UNK         0.0793 
    117 H117      -79.4400   23.9005  -74.5590 H         1 UNK         0.3047 
    118 H118      -80.7678   23.3115  -77.7737 H         1 UNK         0.0822 
    119 H119      -82.4190   21.8437  -76.6142 H         1 UNK         0.0807 
    120 H120      -81.2682   21.5564  -75.3106 H         1 UNK         0.0807 
    121 H121      -80.9178   20.9912  -76.9356 H         1 UNK         0.0807 
    122 H122      -81.8179   24.0050  -75.1340 H         1 UNK         0.2946 
    123 H123      -81.2601   27.4897  -75.5126 H         1 UNK         0.1144 
    124 H124      -83.7203   27.7238  -75.3040 H         1 UNK         0.0793 
    125 H125      -83.9519   26.0465  -75.8010 H         1 UNK         0.0793 
    126 H126      -83.3020   27.2241  -76.9336 H         1 UNK         0.0793 
    127 H127      -82.7945   26.0796  -73.5910 H         1 UNK         0.2896 
@<TRIPOS>BOND
     1    1    2 1    
     2    1   67 1    
     3    1   68 1    
     4    1   69 1    
     5    2    3 2    
     6    2    4 am   BACKBONE|DICT|INTERRES
     7    4    5 1    
     8    4   70 1    
     9    5    6 1    
    10    5   65 1    
    11    5   71 1    
    12    6    7 1    
    13    6   72 1    
    14    6   73 1    
    15    7    8 1    
    16    8    9 1    
    17    8   74 1    
    18    8   75 1    
    19    9   10 ar   
    20    9   14 ar   
    21   10   11 ar   
    22   10   76 1    
    23   11   12 ar   
    24   11   48 1    
    25   12   13 ar   
    26   12   77 1    
    27   13   14 ar   
    28   13   15 1    
    29   14   78 1    
    30   15   16 1    
    31   15   79 1    
    32   15   80 1    
    33   16   17 1    
    34   17   18 1    
    35   17   81 1    
    36   17   82 1    
    37   18   19 1    
    38   18   22 1    
    39   18   83 1    
    40   19   20 am   BACKBONE|DICT|INTERRES
    41   19   21 2    
    42   20   84 1    
    43   20   85 1    
    44   22   23 am   BACKBONE|DICT|INTERRES
    45   22   86 1    
    46   23   24 2    
    47   23   25 1    
    48   25   26 1    
    49   25   27 1    
    50   25   87 1    
    51   26   88 1    
    52   26   89 1    
    53   26   90 1    
    54   27   28 am   BACKBONE|DICT|INTERRES
    55   27   91 1    
    56   28   29 2    
    57   28   30 1    
    58   30   31 1    
    59   30   32 1    
    60   30   92 1    
    61   31   93 1    
    62   31   94 1    
    63   31   95 1    
    64   32   33 am   BACKBONE|DICT|INTERRES
    65   32   96 1    
    66   33   34 2    
    67   33   35 1    
    68   35   36 1    
    69   35   37 1    
    70   35   97 1    
    71   36   98 1    
    72   36   99 1    
    73   36  100 1    
    74   37   38 am   BACKBONE|DICT|INTERRES
    75   37  101 1    
    76   38   39 2    
    77   38   40 1    
    78   40   41 1    
    79   40   42 1    
    80   40  102 1    
    81   41  103 1    
    82   41  104 1    
    83   41  105 1    
    84   42   43 am   BACKBONE|DICT|INTERRES
    85   42  106 1    
    86   43   44 2    
    87   43   45 1    
    88   45   46 1    
    89   45   49 1    
    90   45  107 1    
    91   46   47 1    
    92   46  108 1    
    93   46  109 1    
    94   47   48 1    
    95   48  110 1    
    96   48  111 1    
    97   49   50 am   BACKBONE|DICT|INTERRES
    98   49  112 1    
    99   50   51 2    
   100   50   52 1    
   101   52   53 1    
   102   52   54 1    
   103   52  113 1    
   104   53  114 1    
   105   53  115 1    
   106   53  116 1    
   107   54   55 am   BACKBONE|DICT|INTERRES
   108   54  117 1    
   109   55   56 2    
   110   55   57 1    
   111   57   58 1    
   112   57   59 1    
   113   57  118 1    
   114   58  119 1    
   115   58  120 1    
   116   58  121 1    
   117   59   60 am   BACKBONE|DICT|INTERRES
   118   59  122 1    
   119   60   61 2    
   120   60   62 1    
   121   62   63 1    
   122   62   64 1    
   123   62  123 1    
   124   63  124 1    
   125   63  125 1    
   126   63  126 1    
   127   64   65 am   BACKBONE|DICT|INTERRES
   128   64  127 1    
   129   65   66 2    
@<TRIPOS>SUBSTRUCTURE
     1 UNK         1 GROUP             0       ****    0 ROOT    
