@<TRIPOS>MOLECULE
3R135
127   129    1
SMALL
USER_CHARGES


@<TRIPOS>ATOM
      1 CA        -80.2915   25.2885  -69.6112 C.3       0 UNK        -0.1998 
      2 C         -81.2096   25.4675  -70.8111 C.2       0 UNK         0.4909 
      3 O         -82.2477   24.8096  -70.8898 O.2       0 UNK        -0.5240 
      4 N         -80.8401   26.3596  -71.7390 N.am      1 UNK        -0.4739 
      5 CA        -81.5663   26.6193  -72.9863 C.3       1 UNK         0.0864 
      6 C6        -81.0705   27.9046  -73.6967 C.3       11 UNK        -0.0881 
      7 S7        -81.3507   29.3970  -72.6844 S.3       11 UNK        -0.2682 
      8 C8        -79.9857   30.4870  -73.2248 C.3       11 UNK         0.0289 
      9 C9        -78.5840   29.9457  -72.9450 C.ar      11 UNK        -0.0687 
     10 C10       -78.3149   29.1473  -71.8273 C.ar      11 UNK        -0.0823 
     11 C11       -77.0362   28.6285  -71.6116 C.ar      11 UNK        -0.0830 
     12 C12       -76.0038   28.9578  -72.4928 C.ar      11 UNK        -0.1021 
     13 C13       -76.2482   29.7770  -73.5984 C.ar      11 UNK        -0.0753 
     14 C14       -77.5405   30.2617  -73.8214 C.ar      11 UNK        -0.0933 
     15 C15       -75.1279   30.1075  -74.5740 C.3       11 UNK         0.0166 
     16 S16       -74.3588   31.7169  -74.2074 S.3       11 UNK        -0.2615 
     17 C17       -73.2979   31.3084  -72.7784 C.3       11 UNK        -0.0865 
     18 CA        -71.7954   31.6003  -73.0293 C.3       10 UNK         0.0862 
     19 C         -70.9819   31.3005  -71.7390 C.2       10 UNK         0.5551 
     20 N         -70.7218   32.3101  -70.9199 N.am      10 UNK        -0.7319 
     21 O         -70.6321   30.1563  -71.4549 O.2       10 UNK        -0.5018 
     22 N         -71.2953   30.8778  -74.2098 N.am      10 UNK        -0.4509 
     23 C         -70.0498   30.9216  -74.6997 C.2       10 UNK         0.4899 
     24 O         -69.1645   31.6521  -74.2511 O.2       10 UNK        -0.4839 
     25 CA        -69.7443   29.9860  -75.8898 C.3       9 UNK         0.0222 
     26 CB        -68.2456   29.9492  -76.2459 C.3       9 UNK        -0.1966 
     27 N         -70.2084   28.6152  -75.6459 N.am      9 UNK        -0.4218 
     28 C         -71.4655   28.1888  -75.8159 C.2       9 UNK         0.5020 
     29 O         -72.3791   28.9157  -76.2108 O.2       9 UNK        -0.5274 
     30 CA        -71.7592   26.7400  -75.3971 C.3       8 UNK         0.0270 
     31 CB        -72.0551   26.6773  -73.8887 C.3       8 UNK        -0.1976 
     32 N         -72.8966   26.1893  -76.1383 N.am      8 UNK        -0.4313 
     33 C         -72.8359   25.7909  -77.4184 C.2       8 UNK         0.5041 
     34 O         -71.7928   25.7885  -78.0753 O.2       8 UNK        -0.5577 
     35 CA        -74.1282   25.2853  -78.0918 C.3       7 UNK         0.0284 
     36 CB        -74.1146   23.7509  -78.1901 C.3       7 UNK        -0.1958 
     37 N         -75.3550   25.7048  -77.4144 N.am      7 UNK        -0.4454 
     38 C         -75.8378   26.9548  -77.4001 C.2       7 UNK         0.5089 
     39 O         -75.3587   27.8785  -78.0575 O.2       7 UNK        -0.5125 
     40 CA        -77.0531   27.2325  -76.4922 C.3       6 UNK         0.0408 
     41 CB        -78.3319   27.3492  -77.3317 C.3       6 UNK        -0.1791 
     42 N         -77.2636   26.2508  -75.4204 N.am      6 UNK        -0.4762 
     43 C         -76.3840   25.9700  -74.4452 C.2       6 UNK         0.5007 
     44 O         -75.2613   26.4684  -74.3813 O.2       6 UNK        -0.5032 
     45 CA        -76.7935   24.8967  -73.4202 C.3       5 UNK         0.0783 
     46 C46       -77.4688   25.4944  -72.1604 C.3       11 UNK        -0.0857 
     47 S47       -76.2269   26.0362  -70.9315 S.3       11 UNK        -0.2512 
     48 C48       -76.7811   27.7021  -70.4313 C.3       11 UNK         0.0225 
     49 N         -77.6072   23.8517  -74.0504 N.am      5 UNK        -0.4615 
     50 C         -77.0696   22.8512  -74.7622 C.2       4 UNK         0.5053 
     51 O         -75.8608   22.7242  -74.9592 O.2       4 UNK        -0.5105 
     52 CA        -78.0340   21.8126  -75.3481 C.3       4 UNK         0.0263 
     53 CB        -78.7857   21.0626  -74.2341 C.3       4 UNK        -0.1981 
     54 N         -78.9979   22.3722  -76.2934 N.am      4 UNK        -0.4224 
     55 C         -78.7162   22.9886  -77.4524 C.2       3 UNK         0.4895 
     56 O         -77.5781   23.2596  -77.8320 O.2       3 UNK        -0.5091 
     57 CA        -79.9127   23.3369  -78.3596 C.3       3 UNK         0.0250 
     58 CB        -80.0582   22.2913  -79.4774 C.3       3 UNK        -0.1996 
     59 N         -81.1645   23.4080  -77.6002 N.am      3 UNK        -0.4254 
     60 C         -81.5456   24.4913  -76.9137 C.2       2 UNK         0.5004 
     61 O         -81.0275   25.5998  -77.0596 O.2       2 UNK        -0.5226 
     62 CA        -82.6719   24.3116  -75.8745 C.3       2 UNK         0.0269 
     63 CB        -82.7950   22.8707  -75.3263 C.3       2 UNK        -0.1926 
     64 N         -82.5361   25.2643  -74.7646 N.am      2 UNK        -0.4687 
     65 C         -81.4789   25.4194  -73.9502 C.2       1 UNK         0.5165 
     66 O         -80.4622   24.7133  -73.9715 O.2       1 UNK        -0.5079 
     67 H67       -80.8360   25.4880  -68.6887 H         1 UNK         0.0900 
     68 H68       -79.9201   24.2648  -69.5737 H         1 UNK         0.0900 
     69 H69       -79.4337   25.9581  -69.6489 H         1 UNK         0.0900 
     70 H70       -79.9840   26.8775  -71.6224 H         1 UNK         0.2959 
     71 H71       -82.6179   26.7573  -72.7238 H         1 UNK         0.1079 
     72 H72       -81.5923   28.0516  -74.6447 H         1 UNK         0.0837 
     73 H73       -80.0118   27.8143  -73.9479 H         1 UNK         0.0837 
     74 H74       -80.1080   30.6797  -74.2919 H         1 UNK         0.0685 
     75 H75       -80.0902   31.4492  -72.7222 H         1 UNK         0.0685 
     76 H76       -79.1072   28.9147  -71.1303 H         1 UNK         0.1434 
     77 H77       -75.0169   28.5465  -72.3326 H         1 UNK         0.1329 
     78 H78       -77.7318   30.8860  -74.6835 H         1 UNK         0.1335 
     79 H79       -74.3744   29.3193  -74.5653 H         1 UNK         0.0680 
     80 H80       -75.5207   30.1351  -75.5913 H         1 UNK         0.0680 
     81 H81       -73.6606   31.8879  -71.9271 H         1 UNK         0.1032 
     82 H82       -73.4314   30.2615  -72.5036 H         1 UNK         0.1032 
     83 H83       -71.6915   32.6637  -73.2537 H         1 UNK         0.0461 
     84 H84       -71.0139   33.2496  -71.1406 H         1 UNK         0.3453 
     85 H85       -70.2103   32.1320  -70.0696 H         1 UNK         0.3453 
     86 H86       -71.9603   30.2741  -74.6790 H         1 UNK         0.2984 
     87 H87       -70.2751   30.3899  -76.7545 H         1 UNK         0.0554 
     88 H88       -67.8784   30.9449  -76.4988 H         1 UNK         0.0847 
     89 H89       -68.0578   29.3108  -77.1093 H         1 UNK         0.0847 
     90 H90       -67.6414   29.5799  -75.4163 H         1 UNK         0.0847 
     91 H91       -69.5270   27.9730  -75.2662 H         1 UNK         0.3141 
     92 H92       -70.8804   26.1258  -75.6056 H         1 UNK         0.0743 
     93 H93       -72.8809   27.3339  -73.6113 H         1 UNK         0.0784 
     94 H94       -72.3128   25.6658  -73.5742 H         1 UNK         0.0784 
     95 H95       -71.1877   26.9880  -73.3049 H         1 UNK         0.0784 
     96 H96       -73.7974   26.2236  -75.6682 H         1 UNK         0.3213 
     97 H97       -74.1450   25.6923  -79.1051 H         1 UNK         0.0855 
     98 H98       -74.1345   23.2838  -77.2044 H         1 UNK         0.0814 
     99 H99       -73.2181   23.3981  -78.7016 H         1 UNK         0.0814 
    100 H100      -74.9725   23.3820  -78.7525 H         1 UNK         0.0814 
    101 H101      -75.8424   24.9994  -76.8784 H         1 UNK         0.3105 
    102 H102      -76.8803   28.1959  -76.0121 H         1 UNK         0.0547 
    103 H103      -79.1884   27.6274  -76.7174 H         1 UNK         0.0837 
    104 H104      -78.5663   26.4110  -77.8354 H         1 UNK         0.0837 
    105 H105      -78.2264   28.1142  -78.1021 H         1 UNK         0.0837 
    106 H106      -78.1497   25.7650  -75.4183 H         1 UNK         0.3020 
    107 H107      -75.8640   24.4223  -73.0938 H         1 UNK         0.1245 
    108 H108      -78.0822   24.7368  -71.6705 H         1 UNK         0.0781 
    109 H109      -78.1485   26.3034  -72.4258 H         1 UNK         0.0781 
    110 H110      -76.0171   28.1471  -69.7924 H         1 UNK         0.0836 
    111 H111      -77.6727   27.6056  -69.8110 H         1 UNK         0.0836 
    112 H112      -78.6168   23.9309  -73.9609 H         1 UNK         0.3022 
    113 H113      -77.4319   21.0837  -75.8950 H         1 UNK         0.0747 
    114 H114      -79.3645   20.2315  -74.6375 H         1 UNK         0.0793 
    115 H115      -78.0892   20.6448  -73.5057 H         1 UNK         0.0793 
    116 H116      -79.4717   21.7154  -73.6923 H         1 UNK         0.0793 
    117 H117      -79.9689   22.2309  -76.0652 H         1 UNK         0.3047 
    118 H118      -79.7077   24.3037  -78.8248 H         1 UNK         0.0822 
    119 H119      -80.8727   22.5471  -80.1555 H         1 UNK         0.0807 
    120 H120      -80.2520   21.2944  -79.0794 H         1 UNK         0.0807 
    121 H121      -79.1475   22.2318  -80.0753 H         1 UNK         0.0807 
    122 H122      -81.6798   22.5473  -77.4828 H         1 UNK         0.2946 
    123 H123      -83.6017   24.5592  -76.3895 H         1 UNK         0.1144 
    124 H124      -83.5748   22.8094  -74.5669 H         1 UNK         0.0793 
    125 H125      -81.8678   22.5256  -74.8678 H         1 UNK         0.0793 
    126 H126      -83.0673   22.1621  -76.1091 H         1 UNK         0.0793 
    127 H127      -83.2946   25.9269  -74.6817 H         1 UNK         0.2896 
@<TRIPOS>BOND
     1    1    2 1    
     2    1   67 1    
     3    1   68 1    
     4    1   69 1    
     5    2    3 2    
     6    2    4 am   BACKBONE|DICT|INTERRES
     7    4    5 1    
     8    4   70 1    
     9    5    6 1    
    10    5   65 1    
    11    5   71 1    
    12    6    7 1    
    13    6   72 1    
    14    6   73 1    
    15    7    8 1    
    16    8    9 1    
    17    8   74 1    
    18    8   75 1    
    19    9   10 ar   
    20    9   14 ar   
    21   10   11 ar   
    22   10   76 1    
    23   11   12 ar   
    24   11   48 1    
    25   12   13 ar   
    26   12   77 1    
    27   13   14 ar   
    28   13   15 1    
    29   14   78 1    
    30   15   16 1    
    31   15   79 1    
    32   15   80 1    
    33   16   17 1    
    34   17   18 1    
    35   17   81 1    
    36   17   82 1    
    37   18   19 1    
    38   18   22 1    
    39   18   83 1    
    40   19   20 am   BACKBONE|DICT|INTERRES
    41   19   21 2    
    42   20   84 1    
    43   20   85 1    
    44   22   23 am   BACKBONE|DICT|INTERRES
    45   22   86 1    
    46   23   24 2    
    47   23   25 1    
    48   25   26 1    
    49   25   27 1    
    50   25   87 1    
    51   26   88 1    
    52   26   89 1    
    53   26   90 1    
    54   27   28 am   BACKBONE|DICT|INTERRES
    55   27   91 1    
    56   28   29 2    
    57   28   30 1    
    58   30   31 1    
    59   30   32 1    
    60   30   92 1    
    61   31   93 1    
    62   31   94 1    
    63   31   95 1    
    64   32   33 am   BACKBONE|DICT|INTERRES
    65   32   96 1    
    66   33   34 2    
    67   33   35 1    
    68   35   36 1    
    69   35   37 1    
    70   35   97 1    
    71   36   98 1    
    72   36   99 1    
    73   36  100 1    
    74   37   38 am   BACKBONE|DICT|INTERRES
    75   37  101 1    
    76   38   39 2    
    77   38   40 1    
    78   40   41 1    
    79   40   42 1    
    80   40  102 1    
    81   41  103 1    
    82   41  104 1    
    83   41  105 1    
    84   42   43 am   BACKBONE|DICT|INTERRES
    85   42  106 1    
    86   43   44 2    
    87   43   45 1    
    88   45   46 1    
    89   45   49 1    
    90   45  107 1    
    91   46   47 1    
    92   46  108 1    
    93   46  109 1    
    94   47   48 1    
    95   48  110 1    
    96   48  111 1    
    97   49   50 am   BACKBONE|DICT|INTERRES
    98   49  112 1    
    99   50   51 2    
   100   50   52 1    
   101   52   53 1    
   102   52   54 1    
   103   52  113 1    
   104   53  114 1    
   105   53  115 1    
   106   53  116 1    
   107   54   55 am   BACKBONE|DICT|INTERRES
   108   54  117 1    
   109   55   56 2    
   110   55   57 1    
   111   57   58 1    
   112   57   59 1    
   113   57  118 1    
   114   58  119 1    
   115   58  120 1    
   116   58  121 1    
   117   59   60 am   BACKBONE|DICT|INTERRES
   118   59  122 1    
   119   60   61 2    
   120   60   62 1    
   121   62   63 1    
   122   62   64 1    
   123   62  123 1    
   124   63  124 1    
   125   63  125 1    
   126   63  126 1    
   127   64   65 am   BACKBONE|DICT|INTERRES
   128   64  127 1    
   129   65   66 2    
@<TRIPOS>SUBSTRUCTURE
     1 UNK         1 GROUP             0       ****    0 ROOT    
