@<TRIPOS>MOLECULE
3R135
127   129    1
SMALL
USER_CHARGES


@<TRIPOS>ATOM
      1 CA        -78.6637   30.5432  -76.8511 C.3       0 UNK        -0.1998 
      2 C         -78.9454   29.4995  -75.7827 C.2       0 UNK         0.4909 
      3 O         -78.0493   28.7346  -75.4223 O.2       0 UNK        -0.5240 
      4 N         -80.1822   29.4718  -75.2760 N.am      1 UNK        -0.4739 
      5 CA        -80.6397   28.5205  -74.2627 C.3       1 UNK         0.0864 
      6 C6        -81.8918   29.0373  -73.5068 C.3       11 UNK        -0.0881 
      7 S7        -81.6068   30.6104  -72.6300 S.3       11 UNK        -0.2682 
      8 C8        -81.1864   30.0240  -70.9571 C.3       11 UNK         0.0289 
      9 C9        -79.7970   29.4053  -70.9154 C.ar      11 UNK        -0.0687 
     10 C10       -79.6310   28.0181  -70.8368 C.ar      11 UNK        -0.0823 
     11 C11       -78.3509   27.4516  -70.8217 C.ar      11 UNK        -0.0830 
     12 C12       -77.2353   28.2986  -70.8341 C.ar      11 UNK        -0.1021 
     13 C13       -77.3880   29.6834  -70.9362 C.ar      11 UNK        -0.0753 
     14 C14       -78.6716   30.2308  -70.9712 C.ar      11 UNK        -0.0933 
     15 C15       -76.1715   30.5919  -71.0234 C.3       11 UNK         0.0166 
     16 S16       -75.6133   30.7860  -72.7473 S.3       11 UNK        -0.2615 
     17 C17       -74.5389   29.3232  -72.9575 C.3       11 UNK        -0.0865 
     18 CA        -73.0592   29.6936  -73.2619 C.3       10 UNK         0.0862 
     19 C         -72.2272   30.1352  -72.0145 C.2       10 UNK         0.5551 
     20 N         -70.9073   29.9881  -72.0299 N.am      10 UNK        -0.7319 
     21 O         -72.7644   30.6332  -71.0292 O.2       10 UNK        -0.5018 
     22 N         -72.4013   28.6708  -74.0911 N.am      10 UNK        -0.4509 
     23 C         -72.1213   27.4124  -73.7177 C.2       10 UNK         0.4899 
     24 O         -72.4467   26.9351  -72.6302 O.2       10 UNK        -0.4839 
     25 CA        -71.3432   26.5510  -74.7280 C.3       9 UNK         0.0222 
     26 CB        -71.4981   25.0407  -74.4758 C.3       9 UNK        -0.1966 
     27 N         -71.7799   26.8594  -76.0880 N.am      9 UNK        -0.4218 
     28 C         -71.0162   27.4037  -77.0426 C.2       9 UNK         0.5020 
     29 O         -69.8094   27.6194  -76.9214 O.2       9 UNK        -0.5274 
     30 CA        -71.7183   27.8072  -78.3500 C.3       8 UNK         0.0270 
     31 CB        -71.7044   26.6391  -79.3491 C.3       8 UNK        -0.1976 
     32 N         -73.0974   28.2714  -78.1754 N.am      8 UNK        -0.4313 
     33 C         -73.5099   29.3063  -77.4331 C.2       8 UNK         0.5041 
     34 O         -72.7527   29.9946  -76.7477 O.2       8 UNK        -0.5577 
     35 CA        -75.0165   29.6378  -77.4522 C.3       7 UNK         0.0284 
     36 CB        -75.3586   30.4934  -78.6883 C.3       7 UNK        -0.1958 
     37 N         -75.9118   28.4739  -77.3316 N.am      7 UNK        -0.4454 
     38 C         -76.0563   27.4282  -78.1580 C.2       7 UNK         0.5089 
     39 O         -75.4783   27.3320  -79.2429 O.2       7 UNK        -0.5125 
     40 CA        -76.9493   26.2708  -77.6614 C.3       6 UNK         0.0408 
     41 CB        -76.7979   25.0025  -78.5244 C.3       6 UNK        -0.1791 
     42 N         -76.7819   25.9017  -76.2480 N.am      6 UNK        -0.4762 
     43 C         -75.6474   25.7659  -75.5404 C.2       6 UNK         0.5007 
     44 O         -74.5255   26.0585  -75.9560 O.2       6 UNK        -0.5032 
     45 CA        -75.7889   25.1112  -74.1572 C.3       5 UNK         0.0783 
     46 C46       -76.7528   25.8888  -73.2258 C.3       11 UNK        -0.0857 
     47 S47       -76.6694   25.2650  -71.5139 S.3       11 UNK        -0.2512 
     48 C48       -78.2101   25.9278  -70.7824 C.3       11 UNK         0.0225 
     49 N         -76.2023   23.7255  -74.3916 N.am      5 UNK        -0.4615 
     50 C         -75.3664   22.6779  -74.4082 C.2       4 UNK         0.5053 
     51 O         -74.2016   22.7365  -74.0152 O.2       4 UNK        -0.5105 
     52 CA        -75.8595   21.3485  -75.0178 C.3       4 UNK         0.0263 
     53 CB        -75.8024   20.1880  -74.0014 C.3       4 UNK        -0.1981 
     54 N         -77.1576   21.4379  -75.7031 N.am      4 UNK        -0.4224 
     55 C         -78.3760   21.5213  -75.1544 C.2       3 UNK         0.4895 
     56 O         -78.6121   21.4123  -73.9496 O.2       3 UNK        -0.5091 
     57 CA        -79.5301   21.8172  -76.1297 C.3       3 UNK         0.0250 
     58 CB        -80.2612   20.5208  -76.5135 C.3       3 UNK        -0.1996 
     59 N         -80.4881   22.7632  -75.5519 N.am      3 UNK        -0.4254 
     60 C         -80.1799   23.9990  -75.1342 C.2       2 UNK         0.5004 
     61 O         -79.0763   24.5235  -75.3092 O.2       2 UNK        -0.5226 
     62 CA        -81.2789   24.7331  -74.3476 C.3       2 UNK         0.0269 
     63 CB        -81.5850   23.9999  -73.0283 C.3       2 UNK        -0.1926 
     64 N         -80.9167   26.1131  -74.0230 N.am      2 UNK        -0.4687 
     65 C         -80.9400   27.1405  -74.8799 C.2       1 UNK         0.5165 
     66 O         -81.2595   27.0399  -76.0679 O.2       1 UNK        -0.5079 
     67 H67       -77.7710   31.1117  -76.5925 H         1 UNK         0.0900 
     68 H68       -79.4896   31.2455  -76.9627 H         1 UNK         0.0900 
     69 H69       -78.5001   30.0556  -77.8114 H         1 UNK         0.0900 
     70 H70       -80.8819   30.1121  -75.6219 H         1 UNK         0.2959 
     71 H71       -79.8245   28.3886  -73.5492 H         1 UNK         0.1079 
     72 H72       -82.7181   29.1898  -74.2040 H         1 UNK         0.0837 
     73 H73       -82.2475   28.2988  -72.7857 H         1 UNK         0.0837 
     74 H74       -81.2220   30.8707  -70.2699 H         1 UNK         0.0685 
     75 H75       -81.9427   29.3190  -70.6087 H         1 UNK         0.0685 
     76 H76       -80.5024   27.3787  -70.7988 H         1 UNK         0.1434 
     77 H77       -76.2410   27.8806  -70.7880 H         1 UNK         0.1329 
     78 H78       -78.7977   31.3018  -71.0537 H         1 UNK         0.1335 
     79 H79       -76.4154   31.5775  -70.6243 H         1 UNK         0.0680 
     80 H80       -75.3623   30.2076  -70.4012 H         1 UNK         0.0680 
     81 H81       -74.9578   28.7564  -73.7903 H         1 UNK         0.1032 
     82 H82       -74.5928   28.6618  -72.0933 H         1 UNK         0.1032 
     83 H83       -73.0748   30.5756  -73.9031 H         1 UNK         0.0461 
     84 H84       -70.3692   30.2781  -71.2285 H         1 UNK         0.3453 
     85 H85       -70.4462   29.5929  -72.8334 H         1 UNK         0.3453 
     86 H86       -72.1340   28.9815  -75.0193 H         1 UNK         0.2984 
     87 H87       -70.2896   26.8034  -74.5956 H         1 UNK         0.0554 
     88 H88       -70.9086   24.4592  -75.1844 H         1 UNK         0.0847 
     89 H89       -72.5361   24.7245  -74.5694 H         1 UNK         0.0847 
     90 H90       -71.1609   24.7682  -73.4751 H         1 UNK         0.0847 
     91 H91       -72.7726   26.7141  -76.2672 H         1 UNK         0.3141 
     92 H92       -71.1521   28.6351  -78.7811 H         1 UNK         0.0743 
     93 H93       -72.2938   25.7948  -78.9884 H         1 UNK         0.0784 
     94 H94       -72.1071   26.9396  -80.3166 H         1 UNK         0.0784 
     95 H95       -70.6881   26.2807  -79.5189 H         1 UNK         0.0784 
     96 H96       -73.8211   27.7781  -78.6964 H         1 UNK         0.3213 
     97 H97       -75.2106   30.2449  -76.5661 H         1 UNK         0.0855 
     98 H98       -74.7463   31.3959  -78.7145 H         1 UNK         0.0814 
     99 H99       -76.3990   30.8130  -78.6842 H         1 UNK         0.0814 
    100 H100      -75.1791   29.9573  -79.6205 H         1 UNK         0.0814 
    101 H101      -76.4698   28.4459  -76.4797 H         1 UNK         0.3105 
    102 H102      -77.9779   26.6204  -77.7613 H         1 UNK         0.0547 
    103 H103      -77.0150   25.2088  -79.5732 H         1 UNK         0.0837 
    104 H104      -75.7848   24.6020  -78.4710 H         1 UNK         0.0837 
    105 H105      -77.4859   24.2210  -78.2021 H         1 UNK         0.0837 
    106 H106      -77.6455   25.6016  -75.7981 H         1 UNK         0.3020 
    107 H107      -74.7990   25.1373  -73.6946 H         1 UNK         0.1245 
    108 H108      -77.7838   25.8347  -73.5738 H         1 UNK         0.0781 
    109 H109      -76.4954   26.9488  -73.2126 H         1 UNK         0.0781 
    110 H110      -78.2651   25.6034  -69.7426 H         1 UNK         0.0836 
    111 H111      -79.0527   25.4619  -71.2946 H         1 UNK         0.0836 
    112 H112      -77.1521   23.6035  -74.7195 H         1 UNK         0.3022 
    113 H113      -75.1439   21.1108  -75.8065 H         1 UNK         0.0747 
    114 H114      -76.1559   19.2551  -74.4402 H         1 UNK         0.0793 
    115 H115      -74.7787   20.0202  -73.6648 H         1 UNK         0.0793 
    116 H116      -76.3989   20.3918  -73.1120 H         1 UNK         0.0793 
    117 H117      -77.0923   21.5346  -76.7076 H         1 UNK         0.3047 
    118 H118      -79.1247   22.2732  -77.0356 H         1 UNK         0.0822 
    119 H119      -81.0576   20.7109  -77.2333 H         1 UNK         0.0807 
    120 H120      -80.7032   20.0344  -75.6427 H         1 UNK         0.0807 
    121 H121      -79.5759   19.8065  -76.9719 H         1 UNK         0.0807 
    122 H122      -81.4056   22.3974  -75.3445 H         1 UNK         0.2946 
    123 H123      -82.1805   24.7473  -74.9647 H         1 UNK         0.1144 
    124 H124      -81.9664   22.9943  -73.2090 H         1 UNK         0.0793 
    125 H125      -82.3428   24.5253  -72.4466 H         1 UNK         0.0793 
    126 H126      -80.6938   23.8991  -72.4073 H         1 UNK         0.0793 
    127 H127      -80.6211   26.2799  -73.0740 H         1 UNK         0.2896 
@<TRIPOS>BOND
     1    1    2 1    
     2    1   67 1    
     3    1   68 1    
     4    1   69 1    
     5    2    3 2    
     6    2    4 am   BACKBONE|DICT|INTERRES
     7    4    5 1    
     8    4   70 1    
     9    5    6 1    
    10    5   65 1    
    11    5   71 1    
    12    6    7 1    
    13    6   72 1    
    14    6   73 1    
    15    7    8 1    
    16    8    9 1    
    17    8   74 1    
    18    8   75 1    
    19    9   10 ar   
    20    9   14 ar   
    21   10   11 ar   
    22   10   76 1    
    23   11   12 ar   
    24   11   48 1    
    25   12   13 ar   
    26   12   77 1    
    27   13   14 ar   
    28   13   15 1    
    29   14   78 1    
    30   15   16 1    
    31   15   79 1    
    32   15   80 1    
    33   16   17 1    
    34   17   18 1    
    35   17   81 1    
    36   17   82 1    
    37   18   19 1    
    38   18   22 1    
    39   18   83 1    
    40   19   20 am   BACKBONE|DICT|INTERRES
    41   19   21 2    
    42   20   84 1    
    43   20   85 1    
    44   22   23 am   BACKBONE|DICT|INTERRES
    45   22   86 1    
    46   23   24 2    
    47   23   25 1    
    48   25   26 1    
    49   25   27 1    
    50   25   87 1    
    51   26   88 1    
    52   26   89 1    
    53   26   90 1    
    54   27   28 am   BACKBONE|DICT|INTERRES
    55   27   91 1    
    56   28   29 2    
    57   28   30 1    
    58   30   31 1    
    59   30   32 1    
    60   30   92 1    
    61   31   93 1    
    62   31   94 1    
    63   31   95 1    
    64   32   33 am   BACKBONE|DICT|INTERRES
    65   32   96 1    
    66   33   34 2    
    67   33   35 1    
    68   35   36 1    
    69   35   37 1    
    70   35   97 1    
    71   36   98 1    
    72   36   99 1    
    73   36  100 1    
    74   37   38 am   BACKBONE|DICT|INTERRES
    75   37  101 1    
    76   38   39 2    
    77   38   40 1    
    78   40   41 1    
    79   40   42 1    
    80   40  102 1    
    81   41  103 1    
    82   41  104 1    
    83   41  105 1    
    84   42   43 am   BACKBONE|DICT|INTERRES
    85   42  106 1    
    86   43   44 2    
    87   43   45 1    
    88   45   46 1    
    89   45   49 1    
    90   45  107 1    
    91   46   47 1    
    92   46  108 1    
    93   46  109 1    
    94   47   48 1    
    95   48  110 1    
    96   48  111 1    
    97   49   50 am   BACKBONE|DICT|INTERRES
    98   49  112 1    
    99   50   51 2    
   100   50   52 1    
   101   52   53 1    
   102   52   54 1    
   103   52  113 1    
   104   53  114 1    
   105   53  115 1    
   106   53  116 1    
   107   54   55 am   BACKBONE|DICT|INTERRES
   108   54  117 1    
   109   55   56 2    
   110   55   57 1    
   111   57   58 1    
   112   57   59 1    
   113   57  118 1    
   114   58  119 1    
   115   58  120 1    
   116   58  121 1    
   117   59   60 am   BACKBONE|DICT|INTERRES
   118   59  122 1    
   119   60   61 2    
   120   60   62 1    
   121   62   63 1    
   122   62   64 1    
   123   62  123 1    
   124   63  124 1    
   125   63  125 1    
   126   63  126 1    
   127   64   65 am   BACKBONE|DICT|INTERRES
   128   64  127 1    
   129   65   66 2    
@<TRIPOS>SUBSTRUCTURE
     1 UNK         1 GROUP             0       ****    0 ROOT    
