@<TRIPOS>MOLECULE
3R135
127   129    1
SMALL
USER_CHARGES


@<TRIPOS>ATOM
      1 CA        -81.7737   26.8512  -69.3790 C.3       0 UNK        -0.1998 
      2 C         -82.6946   27.1556  -70.5515 C.2       0 UNK         0.4909 
      3 O         -83.8676   27.4677  -70.3448 O.2       0 UNK        -0.5240 
      4 N         -82.1700   27.0651  -71.7782 N.am      1 UNK        -0.4739 
      5 CA        -82.8946   27.3206  -73.0297 C.3       1 UNK         0.0864 
      6 C6        -82.7682   28.7956  -73.5043 C.3       11 UNK        -0.0881 
      7 S7        -81.0467   29.3562  -73.7543 S.3       11 UNK        -0.2682 
      8 C8        -80.7175   30.2478  -72.1987 C.3       11 UNK         0.0289 
      9 C9        -79.2768   30.0350  -71.7661 C.ar      11 UNK        -0.0687 
     10 C10       -78.9092   28.8196  -71.1839 C.ar      11 UNK        -0.0823 
     11 C11       -77.5763   28.5579  -70.8657 C.ar      11 UNK        -0.0830 
     12 C12       -76.6168   29.5525  -71.0660 C.ar      11 UNK        -0.1021 
     13 C13       -76.9684   30.7727  -71.6476 C.ar      11 UNK        -0.0753 
     14 C14       -78.3027   31.0133  -71.9942 C.ar      11 UNK        -0.0933 
     15 C15       -75.8883   31.8000  -71.9424 C.3       11 UNK         0.0166 
     16 S16       -75.0571   31.4264  -73.5238 S.3       11 UNK        -0.2615 
     17 C17       -73.2864   31.5425  -73.0754 C.3       11 UNK        -0.0865 
     18 CA        -72.5243   30.1889  -73.1253 C.3       10 UNK         0.0862 
     19 C         -72.9792   29.1768  -72.0388 C.2       10 UNK         0.5551 
     20 N         -73.4029   27.9664  -72.3831 N.am      10 UNK        -0.7319 
     21 O         -72.9155   29.4869  -70.8519 O.2       10 UNK        -0.5018 
     22 N         -72.4445   29.6266  -74.4826 N.am      10 UNK        -0.4509 
     23 C         -71.5149   29.9622  -75.3841 C.2       10 UNK         0.4899 
     24 O         -70.6687   30.8401  -75.2022 O.2       10 UNK        -0.4839 
     25 CA        -71.5300   29.1684  -76.7032 C.3       9 UNK         0.0222 
     26 CB        -70.3411   29.5012  -77.6292 C.3       9 UNK        -0.1966 
     27 N         -71.6307   27.7208  -76.4876 N.am      9 UNK        -0.4218 
     28 C         -70.7886   26.9191  -75.8157 C.2       9 UNK         0.5020 
     29 O         -69.7455   27.3051  -75.2863 O.2       9 UNK        -0.5274 
     30 CA        -71.1691   25.4279  -75.6983 C.3       8 UNK         0.0270 
     31 CB        -71.5942   25.0931  -74.2588 C.3       8 UNK        -0.1976 
     32 N         -72.2341   25.0143  -76.6177 N.am      8 UNK        -0.4313 
     33 C         -72.0850   24.8614  -77.9414 C.2       8 UNK         0.5041 
     34 O         -71.0036   24.9484  -78.5240 O.2       8 UNK        -0.5577 
     35 CA        -73.3668   24.6227  -78.7591 C.3       7 UNK         0.0284 
     36 CB        -73.7507   23.1348  -78.7522 C.3       7 UNK        -0.1958 
     37 N         -74.4967   25.4291  -78.2855 N.am      7 UNK        -0.4454 
     38 C         -74.5424   26.7695  -78.3020 C.2       7 UNK         0.5089 
     39 O         -73.6596   27.4781  -78.7822 O.2       7 UNK        -0.5125 
     40 CA        -75.7414   27.4377  -77.6122 C.3       6 UNK         0.0408 
     41 CB        -76.9535   27.5069  -78.5542 C.3       6 UNK        -0.1791 
     42 N         -76.1103   26.7555  -76.3715 N.am      6 UNK        -0.4762 
     43 C         -75.3839   26.7727  -75.2436 C.2       6 UNK         0.5007 
     44 O         -74.3359   27.4081  -75.1041 O.2       6 UNK        -0.5032 
     45 CA        -75.9096   25.9164  -74.0751 C.3       5 UNK         0.0783 
     46 C46       -76.9291   26.7322  -73.2543 C.3       11 UNK        -0.0857 
     47 S47       -77.4716   25.9035  -71.7149 S.3       11 UNK        -0.2512 
     48 C48       -77.1502   27.1637  -70.4245 C.3       11 UNK         0.0225 
     49 N         -76.4570   24.6418  -74.5461 N.am      5 UNK        -0.4615 
     50 C         -75.7134   23.6601  -75.0762 C.2       4 UNK         0.5053 
     51 O         -74.4901   23.7234  -75.1978 O.2       4 UNK        -0.5105 
     52 CA        -76.4593   22.4231  -75.6075 C.3       4 UNK         0.0263 
     53 CB        -76.6878   21.4076  -74.4772 C.3       4 UNK        -0.1981 
     54 N         -77.7413   22.7496  -76.2373 N.am      4 UNK        -0.4224 
     55 C         -77.8924   23.5599  -77.2952 C.2       3 UNK         0.4895 
     56 O         -76.9494   24.0566  -77.9092 O.2       3 UNK        -0.5091 
     57 CA        -79.3276   23.9156  -77.7231 C.3       3 UNK         0.0250 
     58 CB        -79.7358   23.0941  -78.9561 C.3       3 UNK        -0.1996 
     59 N         -80.3375   23.7476  -76.6709 N.am      3 UNK        -0.4254 
     60 C         -80.3659   24.4168  -75.5094 C.2       2 UNK         0.5004 
     61 O         -79.5042   25.2277  -75.1604 O.2       2 UNK        -0.5226 
     62 CA        -81.5078   24.0441  -74.5498 C.3       2 UNK         0.0269 
     63 CB        -81.0801   22.8668  -73.6569 C.3       2 UNK        -0.1926 
     64 N         -81.9140   25.1589  -73.6929 N.am      2 UNK        -0.4687 
     65 C         -82.5383   26.2724  -74.1086 C.2       1 UNK         0.5165 
     66 O         -82.8681   26.4630  -75.2808 O.2       1 UNK        -0.5079 
     67 H67       -82.2748   26.1948  -68.6680 H         1 UNK         0.0900 
     68 H68       -80.8552   26.3587  -69.6977 H         1 UNK         0.0900 
     69 H69       -81.5076   27.7730  -68.8623 H         1 UNK         0.0900 
     70 H70       -81.1954   26.8274  -71.8964 H         1 UNK         0.2959 
     71 H71       -83.9572   27.1418  -72.8499 H         1 UNK         0.1079 
     72 H72       -83.2580   29.4526  -72.7842 H         1 UNK         0.0837 
     73 H73       -83.3140   28.9443  -74.4377 H         1 UNK         0.0837 
     74 H74       -80.9332   31.3083  -72.3364 H         1 UNK         0.0685 
     75 H75       -81.3816   29.8964  -71.4079 H         1 UNK         0.0685 
     76 H76       -79.6481   28.0465  -71.0451 H         1 UNK         0.1434 
     77 H77       -75.5818   29.3547  -70.8282 H         1 UNK         0.1329 
     78 H78       -78.5762   31.9469  -72.4665 H         1 UNK         0.1335 
     79 H79       -75.1750   31.8107  -71.1175 H         1 UNK         0.0680 
     80 H80       -76.3151   32.8028  -71.9910 H         1 UNK         0.0680 
     81 H81       -72.8176   32.2439  -73.7670 H         1 UNK         0.1032 
     82 H82       -73.1703   32.0019  -72.0929 H         1 UNK         0.1032 
     83 H83       -71.4981   30.4098  -72.8244 H         1 UNK         0.0461 
     84 H84       -73.6557   27.3203  -71.6540 H         1 UNK         0.3453 
     85 H85       -73.5119   27.7089  -73.3543 H         1 UNK         0.3453 
     86 H86       -73.1219   28.9075  -74.7154 H         1 UNK         0.2984 
     87 H87       -72.4429   29.4626  -77.2226 H         1 UNK         0.0554 
     88 H88       -70.4030   28.9464  -78.5655 H         1 UNK         0.0847 
     89 H89       -69.3842   29.2659  -77.1621 H         1 UNK         0.0847 
     90 H90       -70.3276   30.5620  -77.8819 H         1 UNK         0.0847 
     91 H91       -72.4602   27.2940  -76.8789 H         1 UNK         0.3141 
     92 H92       -70.2739   24.8476  -75.9313 H         1 UNK         0.0743 
     93 H93       -72.5011   25.6249  -73.9726 H         1 UNK         0.0784 
     94 H94       -71.7824   24.0259  -74.1396 H         1 UNK         0.0784 
     95 H95       -70.8162   25.3667  -73.5447 H         1 UNK         0.0784 
     96 H96       -73.1446   24.8290  -76.2062 H         1 UNK         0.3213 
     97 H97       -73.1617   24.9175  -79.7905 H         1 UNK         0.0855 
     98 H98       -73.9583   22.7755  -77.7444 H         1 UNK         0.0814 
     99 H99       -72.9431   22.5229  -79.1561 H         1 UNK         0.0814 
    100 H100      -74.6351   22.9497  -79.3622 H         1 UNK         0.0814 
    101 H101      -75.3126   24.9236  -77.9450 H         1 UNK         0.3105 
    102 H102      -75.4533   28.4605  -77.3592 H         1 UNK         0.0547 
    103 H103      -76.7076   28.0623  -79.4602 H         1 UNK         0.0837 
    104 H104      -77.2894   26.5172  -78.8636 H         1 UNK         0.0837 
    105 H105      -77.7946   28.0149  -78.0824 H         1 UNK         0.0837 
    106 H106      -76.9438   26.1847  -76.3942 H         1 UNK         0.3020 
    107 H107      -75.0566   25.6916  -73.4311 H         1 UNK         0.1245 
    108 H108      -77.8186   26.9546  -73.8473 H         1 UNK         0.0781 
    109 H109      -76.4844   27.6975  -73.0157 H         1 UNK         0.0781 
    110 H110      -76.0880   27.1454  -70.1756 H         1 UNK         0.0836 
    111 H111      -77.6849   26.8902  -69.5139 H         1 UNK         0.0836 
    112 H112      -77.4649   24.5479  -74.5127 H         1 UNK         0.3022 
    113 H113      -75.8281   21.9562  -76.3660 H         1 UNK         0.0747 
    114 H114      -77.1380   20.4887  -74.8533 H         1 UNK         0.0793 
    115 H115      -75.7438   21.1333  -74.0038 H         1 UNK         0.0793 
    116 H116      -77.3386   21.8077  -73.6984 H         1 UNK         0.0793 
    117 H117      -78.5718   22.3781  -75.8015 H         1 UNK         0.3047 
    118 H118      -79.3220   24.9712  -78.0030 H         1 UNK         0.0822 
    119 H119      -79.7870   22.0276  -78.7328 H         1 UNK         0.0807 
    120 H120      -79.0165   23.2228  -79.7665 H         1 UNK         0.0807 
    121 H121      -80.7081   23.4059  -79.3381 H         1 UNK         0.0807 
    122 H122      -81.0727   23.0819  -76.8638 H         1 UNK         0.2946 
    123 H123      -82.3762   23.7435  -75.1408 H         1 UNK         0.1144 
    124 H124      -81.8861   22.5607  -72.9896 H         1 UNK         0.0793 
    125 H125      -80.2141   23.1201  -73.0431 H         1 UNK         0.0793 
    126 H126      -80.8119   21.9948  -74.2548 H         1 UNK         0.0793 
    127 H127      -81.7017   25.0697  -72.7110 H         1 UNK         0.2896 
@<TRIPOS>BOND
     1    1    2 1    
     2    1   67 1    
     3    1   68 1    
     4    1   69 1    
     5    2    3 2    
     6    2    4 am   BACKBONE|DICT|INTERRES
     7    4    5 1    
     8    4   70 1    
     9    5    6 1    
    10    5   65 1    
    11    5   71 1    
    12    6    7 1    
    13    6   72 1    
    14    6   73 1    
    15    7    8 1    
    16    8    9 1    
    17    8   74 1    
    18    8   75 1    
    19    9   10 ar   
    20    9   14 ar   
    21   10   11 ar   
    22   10   76 1    
    23   11   12 ar   
    24   11   48 1    
    25   12   13 ar   
    26   12   77 1    
    27   13   14 ar   
    28   13   15 1    
    29   14   78 1    
    30   15   16 1    
    31   15   79 1    
    32   15   80 1    
    33   16   17 1    
    34   17   18 1    
    35   17   81 1    
    36   17   82 1    
    37   18   19 1    
    38   18   22 1    
    39   18   83 1    
    40   19   20 am   BACKBONE|DICT|INTERRES
    41   19   21 2    
    42   20   84 1    
    43   20   85 1    
    44   22   23 am   BACKBONE|DICT|INTERRES
    45   22   86 1    
    46   23   24 2    
    47   23   25 1    
    48   25   26 1    
    49   25   27 1    
    50   25   87 1    
    51   26   88 1    
    52   26   89 1    
    53   26   90 1    
    54   27   28 am   BACKBONE|DICT|INTERRES
    55   27   91 1    
    56   28   29 2    
    57   28   30 1    
    58   30   31 1    
    59   30   32 1    
    60   30   92 1    
    61   31   93 1    
    62   31   94 1    
    63   31   95 1    
    64   32   33 am   BACKBONE|DICT|INTERRES
    65   32   96 1    
    66   33   34 2    
    67   33   35 1    
    68   35   36 1    
    69   35   37 1    
    70   35   97 1    
    71   36   98 1    
    72   36   99 1    
    73   36  100 1    
    74   37   38 am   BACKBONE|DICT|INTERRES
    75   37  101 1    
    76   38   39 2    
    77   38   40 1    
    78   40   41 1    
    79   40   42 1    
    80   40  102 1    
    81   41  103 1    
    82   41  104 1    
    83   41  105 1    
    84   42   43 am   BACKBONE|DICT|INTERRES
    85   42  106 1    
    86   43   44 2    
    87   43   45 1    
    88   45   46 1    
    89   45   49 1    
    90   45  107 1    
    91   46   47 1    
    92   46  108 1    
    93   46  109 1    
    94   47   48 1    
    95   48  110 1    
    96   48  111 1    
    97   49   50 am   BACKBONE|DICT|INTERRES
    98   49  112 1    
    99   50   51 2    
   100   50   52 1    
   101   52   53 1    
   102   52   54 1    
   103   52  113 1    
   104   53  114 1    
   105   53  115 1    
   106   53  116 1    
   107   54   55 am   BACKBONE|DICT|INTERRES
   108   54  117 1    
   109   55   56 2    
   110   55   57 1    
   111   57   58 1    
   112   57   59 1    
   113   57  118 1    
   114   58  119 1    
   115   58  120 1    
   116   58  121 1    
   117   59   60 am   BACKBONE|DICT|INTERRES
   118   59  122 1    
   119   60   61 2    
   120   60   62 1    
   121   62   63 1    
   122   62   64 1    
   123   62  123 1    
   124   63  124 1    
   125   63  125 1    
   126   63  126 1    
   127   64   65 am   BACKBONE|DICT|INTERRES
   128   64  127 1    
   129   65   66 2    
@<TRIPOS>SUBSTRUCTURE
     1 UNK         1 GROUP             0       ****    0 ROOT    
