@<TRIPOS>MOLECULE
3R135
127   129    1
SMALL
USER_CHARGES


@<TRIPOS>ATOM
      1 CA        -79.9486   23.6733  -71.8337 C.3       0 UNK        -0.1998 
      2 C         -80.6561   24.5858  -72.8229 C.2       0 UNK         0.4909 
      3 O         -81.3026   24.0947  -73.7488 O.2       0 UNK        -0.5240 
      4 N         -80.5440   25.9084  -72.6355 N.am      1 UNK        -0.4739 
      5 CA        -81.1657   26.9366  -73.4803 C.3       1 UNK         0.0864 
      6 C6        -80.9290   28.3707  -72.9448 C.3       11 UNK        -0.0881 
      7 S7        -81.6604   28.6105  -71.2890 S.3       11 UNK        -0.2682 
      8 C8        -80.7473   30.0692  -70.6697 C.3       11 UNK         0.0289 
      9 C9        -79.2379   29.8617  -70.5643 C.ar      11 UNK        -0.0687 
     10 C10       -78.7073   28.6472  -70.1129 C.ar      11 UNK        -0.0823 
     11 C11       -77.3267   28.4411  -70.0941 C.ar      11 UNK        -0.0830 
     12 C12       -76.4704   29.4854  -70.4431 C.ar      11 UNK        -0.1021 
     13 C13       -76.9804   30.7030  -70.8920 C.ar      11 UNK        -0.0753 
     14 C14       -78.3659   30.8883  -70.9495 C.ar      11 UNK        -0.0933 
     15 C15       -76.0195   31.7884  -71.3502 C.3       11 UNK         0.0166 
     16 S16       -75.3086   31.3823  -72.9831 S.3       11 UNK        -0.2615 
     17 C17       -73.5086   31.5801  -72.7044 C.3       11 UNK        -0.0865 
     18 CA        -72.6692   30.2826  -72.8973 C.3       10 UNK         0.0862 
     19 C         -72.9358   29.1916  -71.8272 C.2       10 UNK         0.5551 
     20 N         -72.6327   29.4775  -70.5678 N.am      10 UNK        -0.7319 
     21 O         -73.4068   28.0936  -72.1154 O.2       10 UNK        -0.5018 
     22 N         -72.7547   29.7479  -74.2613 N.am      10 UNK        -0.4509 
     23 C         -72.0758   30.2192  -75.3130 C.2       10 UNK         0.4899 
     24 O         -71.3209   31.1922  -75.2584 O.2       10 UNK        -0.4839 
     25 CA        -72.2745   29.4730  -76.6454 C.3       9 UNK         0.0222 
     26 CB        -71.3211   29.9443  -77.7641 C.3       9 UNK        -0.1966 
     27 N         -72.2195   28.0184  -76.4795 N.am      9 UNK        -0.4218 
     28 C         -71.1886   27.2613  -76.0770 C.2       9 UNK         0.5020 
     29 O         -70.0609   27.6955  -75.8378 O.2       9 UNK        -0.5274 
     30 CA        -71.4626   25.7552  -75.8931 C.3       8 UNK         0.0270 
     31 CB        -71.6438   25.4302  -74.4010 C.3       8 UNK        -0.1976 
     32 N         -72.6367   25.2788  -76.6329 N.am      8 UNK        -0.4313 
     33 C         -72.6978   25.1380  -77.9650 C.2       8 UNK         0.5041 
     34 O         -71.7344   25.2997  -78.7151 O.2       8 UNK        -0.5577 
     35 CA        -74.0747   24.8008  -78.5669 C.3       7 UNK         0.0284 
     36 CB        -74.3678   23.2953  -78.4708 C.3       7 UNK        -0.1958 
     37 N         -75.1624   25.5650  -77.9469 N.am      7 UNK        -0.4454 
     38 C         -75.2956   26.8973  -78.0357 C.2       7 UNK         0.5089 
     39 O         -74.5588   27.6163  -78.7096 O.2       7 UNK        -0.5125 
     40 CA        -76.4084   27.5505  -77.2005 C.3       6 UNK         0.0408 
     41 CB        -77.7302   27.5609  -77.9783 C.3       6 UNK        -0.1791 
     42 N         -76.5936   26.8991  -75.9016 N.am      6 UNK        -0.4762 
     43 C         -75.6897   26.9298  -74.9114 C.2       6 UNK         0.5007 
     44 O         -74.6408   27.5689  -74.9768 O.2       6 UNK        -0.5032 
     45 CA        -75.9726   26.0647  -73.6680 C.3       5 UNK         0.0783 
     46 C46       -76.8921   26.8063  -72.6791 C.3       11 UNK        -0.0857 
     47 S47       -77.1932   25.8719  -71.1325 S.3       11 UNK        -0.2512 
     48 C48       -76.7539   27.0605  -69.8151 C.3       11 UNK         0.0225 
     49 N         -76.4829   24.7404  -74.0352 N.am      5 UNK        -0.4615 
     50 C         -75.7380   23.8042  -74.6337 C.2       4 UNK         0.5053 
     51 O         -74.5656   23.9769  -74.9641 O.2       4 UNK        -0.5105 
     52 CA        -76.4045   22.4513  -74.9281 C.3       4 UNK         0.0263 
     53 CB        -76.3228   21.5388  -73.6940 C.3       4 UNK        -0.1981 
     54 N         -77.7950   22.5245  -75.3883 N.am      4 UNK        -0.4224 
     55 C         -78.2380   23.2095  -76.4530 C.2       3 UNK         0.4895 
     56 O         -77.5356   23.9856  -77.1035 O.2       3 UNK        -0.5091 
     57 CA        -79.6956   22.9603  -76.8880 C.3       3 UNK         0.0250 
     58 CB        -80.3921   21.7989  -76.1469 C.3       3 UNK        -0.1996 
     59 N         -80.4844   24.1796  -76.7230 N.am      3 UNK        -0.4254 
     60 C         -80.6441   25.1176  -77.6682 C.2       2 UNK         0.5004 
     61 O         -80.2286   24.9996  -78.8219 O.2       2 UNK        -0.5226 
     62 CA        -81.4073   26.4057  -77.2944 C.3       2 UNK         0.0269 
     63 CB        -82.7606   26.4608  -78.0237 C.3       2 UNK        -0.1926 
     64 N         -81.6397   26.5962  -75.8594 N.am      2 UNK        -0.4687 
     65 C         -80.6889   26.8112  -74.9407 C.2       1 UNK         0.5165 
     66 O         -79.4857   26.8734  -75.1975 O.2       1 UNK        -0.5079 
     67 H67       -80.5812   22.8204  -71.5895 H         1 UNK         0.0900 
     68 H68       -79.7149   24.1919  -70.9043 H         1 UNK         0.0900 
     69 H69       -79.0205   23.2983  -72.2625 H         1 UNK         0.0900 
     70 H70       -79.9867   26.2569  -71.8690 H         1 UNK         0.2959 
     71 H71       -82.2415   26.7488  -73.4588 H         1 UNK         0.1079 
     72 H72       -79.8602   28.5902  -72.9131 H         1 UNK         0.0837 
     73 H73       -81.3730   29.1107  -73.6136 H         1 UNK         0.0837 
     74 H74       -81.1315   30.3285  -69.6825 H         1 UNK         0.0685 
     75 H75       -80.9719   30.9149  -71.3217 H         1 UNK         0.0685 
     76 H76       -79.3668   27.8364  -69.8367 H         1 UNK         0.1434 
     77 H77       -75.4023   29.3285  -70.4334 H         1 UNK         0.1329 
     78 H78       -78.7646   31.8264  -71.3109 H         1 UNK         0.1335 
     79 H79       -76.5275   32.7518  -71.4150 H         1 UNK         0.0680 
     80 H80       -75.2390   31.9051  -70.5979 H         1 UNK         0.0680 
     81 H81       -73.1556   32.3393  -73.4037 H         1 UNK         0.1032 
     82 H82       -73.3193   32.0069  -71.7193 H         1 UNK         0.1032 
     83 H83       -71.6227   30.5541  -72.7433 H         1 UNK         0.0461 
     84 H84       -72.2262   30.3635  -70.3131 H         1 UNK         0.3453 
     85 H85       -72.7841   28.7764  -69.8603 H         1 UNK         0.3453 
     86 H86       -73.3538   28.9317  -74.3689 H         1 UNK         0.2984 
     87 H87       -73.2923   29.6972  -76.9678 H         1 UNK         0.0554 
     88 H88       -71.4586   31.0062  -77.9713 H         1 UNK         0.0847 
     89 H89       -71.5073   29.4064  -78.6937 H         1 UNK         0.0847 
     90 H90       -70.2744   29.7995  -77.4953 H         1 UNK         0.0847 
     91 H91       -73.1139   27.5519  -76.5646 H         1 UNK         0.3141 
     92 H92       -70.5873   25.2143  -76.2585 H         1 UNK         0.0743 
     93 H93       -70.7695   25.7352  -73.8245 H         1 UNK         0.0784 
     94 H94       -72.5075   25.9462  -73.9791 H         1 UNK         0.0784 
     95 H95       -71.7818   24.3607  -74.2408 H         1 UNK         0.0784 
     96 H96       -73.4528   25.0278  -76.0780 H         1 UNK         0.3213 
     97 H97       -74.0467   25.0704  -79.6249 H         1 UNK         0.0855 
     98 H98       -74.3813   22.9490  -77.4381 H         1 UNK         0.0814 
     99 H99       -73.6060   22.7179  -78.9961 H         1 UNK         0.0814 
    100 H100      -75.3302   23.0482  -78.9194 H         1 UNK         0.0814 
    101 H101      -75.8615   25.0437  -77.4243 H         1 UNK         0.3105 
    102 H102      -76.1197   28.5875  -77.0159 H         1 UNK         0.0547 
    103 H103      -77.6128   28.0548  -78.9436 H         1 UNK         0.0837 
    104 H104      -78.0858   26.5491  -78.1707 H         1 UNK         0.0837 
    105 H105      -78.5049   28.0980  -77.4321 H         1 UNK         0.0837 
    106 H106      -77.4648   26.3997  -75.7598 H         1 UNK         0.3020 
    107 H107      -75.0113   25.9194  -73.1680 H         1 UNK         0.1245 
    108 H108      -77.8570   27.0290  -73.1344 H         1 UNK         0.0781 
    109 H109      -76.4385   27.7700  -72.4526 H         1 UNK         0.0781 
    110 H110      -77.1272   26.6937  -68.8581 H         1 UNK         0.0836 
    111 H111      -75.6667   27.1010  -69.7291 H         1 UNK         0.0836 
    112 H112      -77.4428   24.5391  -73.8032 H         1 UNK         0.3022 
    113 H113      -75.8322   21.9810  -75.7299 H         1 UNK         0.0747 
    114 H114      -75.2926   21.4434  -73.3473 H         1 UNK         0.0793 
    115 H115      -76.9105   21.9282  -72.8618 H         1 UNK         0.0793 
    116 H116      -76.6798   20.5332  -73.9174 H         1 UNK         0.0793 
    117 H117      -78.4509   21.9150  -74.9220 H         1 UNK         0.3047 
    118 H118      -79.6588   22.6886  -77.9451 H         1 UNK         0.0822 
    119 H119      -81.4004   21.6446  -76.5316 H         1 UNK         0.0807 
    120 H120      -80.4788   21.9778  -75.0752 H         1 UNK         0.0807 
    121 H121      -79.8548   20.8600  -76.2889 H         1 UNK         0.0807 
    122 H122      -80.8502   24.3555  -75.7930 H         1 UNK         0.2946 
    123 H123      -80.7987   27.2416  -77.6449 H         1 UNK         0.1144 
    124 H124      -82.6290   26.3677  -79.1028 H         1 UNK         0.0793 
    125 H125      -83.2715   27.4070  -77.8443 H         1 UNK         0.0793 
    126 H126      -83.4225   25.6540  -77.7061 H         1 UNK         0.0793 
    127 H127      -82.5999   26.5251  -75.5535 H         1 UNK         0.2896 
@<TRIPOS>BOND
     1    1    2 1    
     2    1   67 1    
     3    1   68 1    
     4    1   69 1    
     5    2    3 2    
     6    2    4 am   BACKBONE|DICT|INTERRES
     7    4    5 1    
     8    4   70 1    
     9    5    6 1    
    10    5   65 1    
    11    5   71 1    
    12    6    7 1    
    13    6   72 1    
    14    6   73 1    
    15    7    8 1    
    16    8    9 1    
    17    8   74 1    
    18    8   75 1    
    19    9   10 ar   
    20    9   14 ar   
    21   10   11 ar   
    22   10   76 1    
    23   11   12 ar   
    24   11   48 1    
    25   12   13 ar   
    26   12   77 1    
    27   13   14 ar   
    28   13   15 1    
    29   14   78 1    
    30   15   16 1    
    31   15   79 1    
    32   15   80 1    
    33   16   17 1    
    34   17   18 1    
    35   17   81 1    
    36   17   82 1    
    37   18   19 1    
    38   18   22 1    
    39   18   83 1    
    40   19   20 am   BACKBONE|DICT|INTERRES
    41   19   21 2    
    42   20   84 1    
    43   20   85 1    
    44   22   23 am   BACKBONE|DICT|INTERRES
    45   22   86 1    
    46   23   24 2    
    47   23   25 1    
    48   25   26 1    
    49   25   27 1    
    50   25   87 1    
    51   26   88 1    
    52   26   89 1    
    53   26   90 1    
    54   27   28 am   BACKBONE|DICT|INTERRES
    55   27   91 1    
    56   28   29 2    
    57   28   30 1    
    58   30   31 1    
    59   30   32 1    
    60   30   92 1    
    61   31   93 1    
    62   31   94 1    
    63   31   95 1    
    64   32   33 am   BACKBONE|DICT|INTERRES
    65   32   96 1    
    66   33   34 2    
    67   33   35 1    
    68   35   36 1    
    69   35   37 1    
    70   35   97 1    
    71   36   98 1    
    72   36   99 1    
    73   36  100 1    
    74   37   38 am   BACKBONE|DICT|INTERRES
    75   37  101 1    
    76   38   39 2    
    77   38   40 1    
    78   40   41 1    
    79   40   42 1    
    80   40  102 1    
    81   41  103 1    
    82   41  104 1    
    83   41  105 1    
    84   42   43 am   BACKBONE|DICT|INTERRES
    85   42  106 1    
    86   43   44 2    
    87   43   45 1    
    88   45   46 1    
    89   45   49 1    
    90   45  107 1    
    91   46   47 1    
    92   46  108 1    
    93   46  109 1    
    94   47   48 1    
    95   48  110 1    
    96   48  111 1    
    97   49   50 am   BACKBONE|DICT|INTERRES
    98   49  112 1    
    99   50   51 2    
   100   50   52 1    
   101   52   53 1    
   102   52   54 1    
   103   52  113 1    
   104   53  114 1    
   105   53  115 1    
   106   53  116 1    
   107   54   55 am   BACKBONE|DICT|INTERRES
   108   54  117 1    
   109   55   56 2    
   110   55   57 1    
   111   57   58 1    
   112   57   59 1    
   113   57  118 1    
   114   58  119 1    
   115   58  120 1    
   116   58  121 1    
   117   59   60 am   BACKBONE|DICT|INTERRES
   118   59  122 1    
   119   60   61 2    
   120   60   62 1    
   121   62   63 1    
   122   62   64 1    
   123   62  123 1    
   124   63  124 1    
   125   63  125 1    
   126   63  126 1    
   127   64   65 am   BACKBONE|DICT|INTERRES
   128   64  127 1    
   129   65   66 2    
@<TRIPOS>SUBSTRUCTURE
     1 UNK         1 GROUP             0       ****    0 ROOT    
