@<TRIPOS>MOLECULE
3R135
127   129    1
SMALL
USER_CHARGES


@<TRIPOS>ATOM
      1 CA        -85.5366   29.7983  -74.3643 C.3       0 UNK        -0.1998 
      2 C         -84.2059   29.1072  -74.6225 C.2       0 UNK         0.4909 
      3 O         -83.8709   28.8349  -75.7763 O.2       0 UNK        -0.5240 
      4 N         -83.4415   28.8308  -73.5588 N.am      1 UNK        -0.4739 
      5 CA        -82.1526   28.1301  -73.6116 C.3       1 UNK         0.0864 
      6 C6        -81.3470   28.3024  -72.2993 C.3       11 UNK        -0.0881 
      7 S7        -81.0307   30.0557  -71.8962 S.3       11 UNK        -0.2682 
      8 C8        -80.1900   29.9184  -70.2858 C.3       11 UNK         0.0289 
      9 C9        -78.7665   29.4065  -70.4433 C.ar      11 UNK        -0.0687 
     10 C10       -78.4929   28.0418  -70.3198 C.ar      11 UNK        -0.0823 
     11 C11       -77.1998   27.5556  -70.5316 C.ar      11 UNK        -0.0830 
     12 C12       -76.1658   28.4522  -70.8193 C.ar      11 UNK        -0.1021 
     13 C13       -76.4233   29.8221  -70.9236 C.ar      11 UNK        -0.0753 
     14 C14       -77.7264   30.2941  -70.7374 C.ar      11 UNK        -0.0933 
     15 C15       -75.2949   30.7857  -71.2547 C.3       11 UNK         0.0166 
     16 S16       -75.0482   30.9100  -73.0529 S.3       11 UNK        -0.2615 
     17 C17       -73.5960   32.0147  -73.1367 C.3       11 UNK        -0.0865 
     18 CA        -72.3136   31.2864  -73.6190 C.3       10 UNK         0.0862 
     19 C         -71.1590   32.3075  -73.8058 C.2       10 UNK         0.5551 
     20 N         -70.9819   32.8280  -75.0114 N.am      10 UNK        -0.7319 
     21 O         -70.4471   32.6484  -72.8637 O.2       10 UNK        -0.5018 
     22 N         -71.9525   30.1875  -72.7094 N.am      10 UNK        -0.4509 
     23 C         -71.0529   29.2107  -72.8877 C.2       10 UNK         0.4899 
     24 O         -70.8456   28.3739  -72.0084 O.2       10 UNK        -0.4839 
     25 CA        -70.2451   29.0965  -74.1978 C.3       9 UNK         0.0222 
     26 CB        -68.7655   29.4407  -73.9551 C.3       9 UNK        -0.1966 
     27 N         -70.3442   27.7206  -74.6820 N.am      9 UNK        -0.4218 
     28 C         -71.3107   27.2796  -75.4958 C.2       9 UNK         0.5020 
     29 O         -72.1064   28.0239  -76.0738 O.2       9 UNK        -0.5274 
     30 CA        -71.3924   25.7550  -75.6777 C.3       8 UNK         0.0270 
     31 CB        -71.7110   25.0557  -74.3422 C.3       8 UNK        -0.1976 
     32 N         -72.4492   25.4139  -76.6289 N.am      8 UNK        -0.4313 
     33 C         -72.2738   24.8052  -77.8082 C.2       8 UNK         0.5041 
     34 O         -71.1701   24.4611  -78.2356 O.2       8 UNK        -0.5577 
     35 CA        -73.5221   24.4944  -78.6611 C.3       7 UNK         0.0284 
     36 CB        -73.7575   22.9759  -78.7315 C.3       7 UNK        -0.1958 
     37 N         -74.7487   25.1340  -78.1818 N.am      7 UNK        -0.4454 
     38 C         -75.0449   26.4331  -78.3143 C.2       7 UNK         0.5089 
     39 O         -74.3501   27.2336  -78.9403 O.2       7 UNK        -0.5125 
     40 CA        -76.3215   26.9278  -77.6083 C.3       6 UNK         0.0408 
     41 CB        -77.5205   26.8749  -78.5673 C.3       6 UNK        -0.1791 
     42 N         -76.6476   26.1874  -76.3834 N.am      6 UNK        -0.4762 
     43 C         -75.8704   26.1199  -75.2912 C.2       6 UNK         0.5007 
     44 O         -74.7762   26.6700  -75.1980 O.2       6 UNK        -0.5032 
     45 CA        -76.3772   25.2596  -74.1220 C.3       5 UNK         0.0783 
     46 C46       -77.4467   26.0207  -73.3078 C.3       11 UNK        -0.0857 
     47 S47       -77.8983   25.1550  -71.7651 S.3       11 UNK        -0.2512 
     48 C48       -76.9294   26.0569  -70.5064 C.3       11 UNK         0.0225 
     49 N         -76.8523   23.9641  -74.6082 N.am      5 UNK        -0.4615 
     50 C         -76.0531   22.9756  -75.0304 C.2       4 UNK         0.5053 
     51 O         -74.8244   23.0191  -74.9829 O.2       4 UNK        -0.5105 
     52 CA        -76.7410   21.7362  -75.6282 C.3       4 UNK         0.0263 
     53 CB        -77.0407   20.7052  -74.5284 C.3       4 UNK        -0.1981 
     54 N         -77.9786   22.0589  -76.3442 N.am      4 UNK        -0.4224 
     55 C         -78.0369   22.7790  -77.4743 C.2       3 UNK         0.4895 
     56 O         -77.0476   23.2150  -78.0618 O.2       3 UNK        -0.5091 
     57 CA        -79.4414   23.1111  -78.0074 C.3       3 UNK         0.0250 
     58 CB        -79.9832   21.9558  -78.8642 C.3       3 UNK        -0.1996 
     59 N         -80.4023   23.4347  -76.9451 N.am      3 UNK        -0.4254 
     60 C         -80.2822   24.4790  -76.1144 C.2       2 UNK         0.5004 
     61 O         -79.3420   25.2774  -76.1493 O.2       2 UNK        -0.5226 
     62 CA        -81.3548   24.6331  -75.0326 C.3       2 UNK         0.0269 
     63 CB        -81.0667   23.6913  -73.8474 C.3       2 UNK        -0.1926 
     64 N         -81.3567   26.0250  -74.5873 N.am      2 UNK        -0.4687 
     65 C         -82.3521   26.6329  -73.9342 C.2       1 UNK         0.5165 
     66 O         -83.3807   26.0548  -73.5709 O.2       1 UNK        -0.5079 
     67 H67       -85.6936   29.9974  -73.3042 H         1 UNK         0.0900 
     68 H68       -85.5758   30.7483  -74.8968 H         1 UNK         0.0900 
     69 H69       -86.3575   29.1748  -74.7175 H         1 UNK         0.0900 
     70 H70       -83.7679   29.0697  -72.6335 H         1 UNK         0.2959 
     71 H71       -81.5724   28.5704  -74.4262 H         1 UNK         0.1079 
     72 H72       -80.3845   27.7944  -72.3843 H         1 UNK         0.0837 
     73 H73       -81.8705   27.8378  -71.4611 H         1 UNK         0.0837 
     74 H74       -80.1757   30.9007  -69.8113 H         1 UNK         0.0685 
     75 H75       -80.7643   29.2686  -69.6235 H         1 UNK         0.0685 
     76 H76       -79.2950   27.3489  -70.1050 H         1 UNK         0.1434 
     77 H77       -75.1629   28.0846  -70.9901 H         1 UNK         0.1329 
     78 H78       -77.9353   31.3504  -70.8388 H         1 UNK         0.1335 
     79 H79       -75.5117   31.7753  -70.8490 H         1 UNK         0.0680 
     80 H80       -74.3721   30.4505  -70.7792 H         1 UNK         0.0680 
     81 H81       -73.8488   32.8256  -73.8229 H         1 UNK         0.1032 
     82 H82       -73.4304   32.4888  -72.1671 H         1 UNK         0.1032 
     83 H83       -72.5426   30.8429  -74.5900 H         1 UNK         0.0461 
     84 H84       -71.5701   32.5661  -75.7875 H         1 UNK         0.3453 
     85 H85       -70.2457   33.5029  -75.1498 H         1 UNK         0.3453 
     86 H86       -72.4321   30.2108  -71.8238 H         1 UNK         0.2984 
     87 H87       -70.6212   29.7703  -74.9662 H         1 UNK         0.0554 
     88 H88       -68.1815   29.3473  -74.8709 H         1 UNK         0.0847 
     89 H89       -68.3139   28.7929  -73.2024 H         1 UNK         0.0847 
     90 H90       -68.6558   30.4680  -73.6057 H         1 UNK         0.0847 
     91 H91       -69.7579   27.0433  -74.2152 H         1 UNK         0.3141 
     92 H92       -70.4214   25.4083  -76.0368 H         1 UNK         0.0743 
     93 H93       -72.6354   25.4322  -73.9017 H         1 UNK         0.0784 
     94 H94       -71.8255   23.9798  -74.4779 H         1 UNK         0.0784 
     95 H95       -70.9164   25.2037  -73.6104 H         1 UNK         0.0784 
     96 H96       -73.3701   25.7627  -76.3806 H         1 UNK         0.3213 
     97 H97       -73.3199   24.8558  -79.6717 H         1 UNK         0.0855 
     98 H98       -73.9777   22.5583  -77.7481 H         1 UNK         0.0814 
     99 H99       -72.8782   22.4584  -79.1174 H         1 UNK         0.0814 
    100 H100      -74.5903   22.7334  -79.3921 H         1 UNK         0.0814 
    101 H101      -75.4295   24.5341  -77.7281 H         1 UNK         0.3105 
    102 H102      -76.1565   27.9692  -77.3248 H         1 UNK         0.0547 
    103 H103      -77.3282   27.4626  -79.4658 H         1 UNK         0.0837 
    104 H104      -77.7352   25.8543  -78.8848 H         1 UNK         0.0837 
    105 H105      -78.4206   27.2773  -78.1022 H         1 UNK         0.0837 
    106 H106      -77.5580   25.7310  -76.3597 H         1 UNK         0.3020 
    107 H107      -75.5208   25.0820  -73.4665 H         1 UNK         0.1245 
    108 H108      -78.3570   26.1529  -73.8926 H         1 UNK         0.0781 
    109 H109      -77.1026   27.0302  -73.0822 H         1 UNK         0.0781 
    110 H110      -75.8699   25.8492  -70.6640 H         1 UNK         0.0836 
    111 H111      -77.1764   25.6646  -69.5191 H         1 UNK         0.0836 
    112 H112      -77.8508   23.8617  -74.7054 H         1 UNK         0.3022 
    113 H113      -76.0472   21.2862  -76.3418 H         1 UNK         0.0747 
    114 H114      -77.4583   19.7888  -74.9458 H         1 UNK         0.0793 
    115 H115      -76.1299   20.4301  -73.9945 H         1 UNK         0.0793 
    116 H116      -77.7457   21.0921  -73.7912 H         1 UNK         0.0793 
    117 H117      -78.8429   21.7352  -75.9357 H         1 UNK         0.3047 
    118 H118      -79.3478   23.9914  -78.6466 H         1 UNK         0.0822 
    119 H119      -80.9350   22.2176  -79.3269 H         1 UNK         0.0807 
    120 H120      -80.1327   21.0489  -78.2771 H         1 UNK         0.0807 
    121 H121      -79.2903   21.7113  -79.6708 H         1 UNK         0.0807 
    122 H122      -81.1990   22.8205  -76.8508 H         1 UNK         0.2946 
    123 H123      -82.3281   24.3967  -75.4690 H         1 UNK         0.1144 
    124 H124      -81.8278   23.7792  -73.0722 H         1 UNK         0.0793 
    125 H125      -80.1011   23.9052  -73.3891 H         1 UNK         0.0793 
    126 H126      -81.0546   22.6480  -74.1648 H         1 UNK         0.0793 
    127 H127      -80.5450   26.5491  -74.8919 H         1 UNK         0.2896 
@<TRIPOS>BOND
     1    1    2 1    
     2    1   67 1    
     3    1   68 1    
     4    1   69 1    
     5    2    3 2    
     6    2    4 am   BACKBONE|DICT|INTERRES
     7    4    5 1    
     8    4   70 1    
     9    5    6 1    
    10    5   65 1    
    11    5   71 1    
    12    6    7 1    
    13    6   72 1    
    14    6   73 1    
    15    7    8 1    
    16    8    9 1    
    17    8   74 1    
    18    8   75 1    
    19    9   10 ar   
    20    9   14 ar   
    21   10   11 ar   
    22   10   76 1    
    23   11   12 ar   
    24   11   48 1    
    25   12   13 ar   
    26   12   77 1    
    27   13   14 ar   
    28   13   15 1    
    29   14   78 1    
    30   15   16 1    
    31   15   79 1    
    32   15   80 1    
    33   16   17 1    
    34   17   18 1    
    35   17   81 1    
    36   17   82 1    
    37   18   19 1    
    38   18   22 1    
    39   18   83 1    
    40   19   20 am   BACKBONE|DICT|INTERRES
    41   19   21 2    
    42   20   84 1    
    43   20   85 1    
    44   22   23 am   BACKBONE|DICT|INTERRES
    45   22   86 1    
    46   23   24 2    
    47   23   25 1    
    48   25   26 1    
    49   25   27 1    
    50   25   87 1    
    51   26   88 1    
    52   26   89 1    
    53   26   90 1    
    54   27   28 am   BACKBONE|DICT|INTERRES
    55   27   91 1    
    56   28   29 2    
    57   28   30 1    
    58   30   31 1    
    59   30   32 1    
    60   30   92 1    
    61   31   93 1    
    62   31   94 1    
    63   31   95 1    
    64   32   33 am   BACKBONE|DICT|INTERRES
    65   32   96 1    
    66   33   34 2    
    67   33   35 1    
    68   35   36 1    
    69   35   37 1    
    70   35   97 1    
    71   36   98 1    
    72   36   99 1    
    73   36  100 1    
    74   37   38 am   BACKBONE|DICT|INTERRES
    75   37  101 1    
    76   38   39 2    
    77   38   40 1    
    78   40   41 1    
    79   40   42 1    
    80   40  102 1    
    81   41  103 1    
    82   41  104 1    
    83   41  105 1    
    84   42   43 am   BACKBONE|DICT|INTERRES
    85   42  106 1    
    86   43   44 2    
    87   43   45 1    
    88   45   46 1    
    89   45   49 1    
    90   45  107 1    
    91   46   47 1    
    92   46  108 1    
    93   46  109 1    
    94   47   48 1    
    95   48  110 1    
    96   48  111 1    
    97   49   50 am   BACKBONE|DICT|INTERRES
    98   49  112 1    
    99   50   51 2    
   100   50   52 1    
   101   52   53 1    
   102   52   54 1    
   103   52  113 1    
   104   53  114 1    
   105   53  115 1    
   106   53  116 1    
   107   54   55 am   BACKBONE|DICT|INTERRES
   108   54  117 1    
   109   55   56 2    
   110   55   57 1    
   111   57   58 1    
   112   57   59 1    
   113   57  118 1    
   114   58  119 1    
   115   58  120 1    
   116   58  121 1    
   117   59   60 am   BACKBONE|DICT|INTERRES
   118   59  122 1    
   119   60   61 2    
   120   60   62 1    
   121   62   63 1    
   122   62   64 1    
   123   62  123 1    
   124   63  124 1    
   125   63  125 1    
   126   63  126 1    
   127   64   65 am   BACKBONE|DICT|INTERRES
   128   64  127 1    
   129   65   66 2    
@<TRIPOS>SUBSTRUCTURE
     1 UNK         1 GROUP             0       ****    0 ROOT    
