@<TRIPOS>MOLECULE
3R135
127   129    1
SMALL
USER_CHARGES


@<TRIPOS>ATOM
      1 CA        -85.2304   28.2515  -73.2102 C.3       0 UNK        -0.1998 
      2 C         -83.7430   28.0464  -73.4527 C.2       0 UNK         0.4909 
      3 O         -83.2040   28.5624  -74.4321 O.2       0 UNK        -0.5240 
      4 N         -83.0751   27.2844  -72.5777 N.am      1 UNK        -0.4739 
      5 CA        -81.6359   26.9840  -72.6123 C.3       1 UNK         0.0864 
      6 C6        -81.0986   26.6802  -71.1871 C.3       11 UNK        -0.0881 
      7 S7        -81.2956   28.1119  -70.0668 S.3       11 UNK        -0.2682 
      8 C8        -79.5766   28.4635  -69.5460 C.3       11 UNK         0.0289 
      9 C9        -78.5987   28.8008  -70.6733 C.ar      11 UNK        -0.0687 
     10 C10       -79.0153   29.3970  -71.8700 C.ar      11 UNK        -0.0823 
     11 C11       -78.1057   29.6435  -72.9027 C.ar      11 UNK        -0.0830 
     12 C12       -76.7553   29.3438  -72.7140 C.ar      11 UNK        -0.1021 
     13 C13       -76.3146   28.7973  -71.5062 C.ar      11 UNK        -0.0753 
     14 C14       -77.2398   28.5195  -70.4956 C.ar      11 UNK        -0.0933 
     15 C15       -74.8378   28.5047  -71.3039 C.3       11 UNK         0.0166 
     16 S16       -73.9080   30.0468  -71.0436 S.3       11 UNK        -0.2615 
     17 C17       -72.2121   29.4513  -70.6992 C.3       11 UNK        -0.0865 
     18 CA        -71.5027   28.6781  -71.8506 C.3       10 UNK         0.0862 
     19 C         -71.7543   27.1424  -71.8148 C.2       10 UNK         0.5551 
     20 N         -72.1813   26.5002  -72.8974 N.am      10 UNK        -0.7319 
     21 O         -71.5348   26.5124  -70.7835 O.2       10 UNK        -0.5018 
     22 N         -71.7305   29.2759  -73.1708 N.am      10 UNK        -0.4509 
     23 C         -70.9830   30.1984  -73.7771 C.2       10 UNK         0.4899 
     24 O         -70.0171   30.7586  -73.2562 O.2       10 UNK        -0.4839 
     25 CA        -71.3641   30.4916  -75.2443 C.3       9 UNK         0.0222 
     26 CB        -70.6504   31.7371  -75.8023 C.3       9 UNK        -0.1966 
     27 N         -71.0691   29.3409  -76.1080 N.am      9 UNK        -0.4218 
     28 C         -71.7420   28.1820  -76.1082 C.2       9 UNK         0.5020 
     29 O         -72.7624   27.9834  -75.4420 O.2       9 UNK        -0.5274 
     30 CA        -71.1302   27.0271  -76.9075 C.3       8 UNK         0.0270 
     31 CB        -69.8463   26.5326  -76.2020 C.3       8 UNK        -0.1976 
     32 N         -72.1275   25.9604  -76.9841 N.am      8 UNK        -0.4313 
     33 C         -72.0116   24.7945  -77.6284 C.2       8 UNK         0.5041 
     34 O         -71.0352   24.4712  -78.3071 O.2       8 UNK        -0.5577 
     35 CA        -73.1903   23.8165  -77.4921 C.3       7 UNK         0.0284 
     36 CB        -73.2234   23.2013  -76.0825 C.3       7 UNK        -0.1958 
     37 N         -74.4908   24.4177  -77.7992 N.am      7 UNK        -0.4454 
     38 C         -74.8383   24.9288  -78.9897 C.2       7 UNK         0.5089 
     39 O         -74.0953   24.9566  -79.9715 O.2       7 UNK        -0.5125 
     40 CA        -76.2641   25.4898  -79.1242 C.3       6 UNK         0.0408 
     41 CB        -77.2348   24.3832  -79.5639 C.3       6 UNK        -0.1791 
     42 N         -76.7686   26.1182  -77.9027 N.am      6 UNK        -0.4762 
     43 C         -76.2988   27.2578  -77.3718 C.2       6 UNK         0.5007 
     44 O         -75.3629   27.9036  -77.8437 O.2       6 UNK        -0.5032 
     45 CA        -77.0238   27.7638  -76.1114 C.3       5 UNK         0.0783 
     46 C46       -78.2845   28.5709  -76.5264 C.3       11 UNK        -0.0857 
     47 S47       -79.4634   28.9526  -75.1886 S.3       11 UNK        -0.2512 
     48 C48       -78.5946   30.2236  -74.2200 C.3       11 UNK         0.0225 
     49 N         -77.3148   26.6474  -75.2100 N.am      5 UNK        -0.4615 
     50 C         -76.3985   26.0423  -74.4411 C.2       4 UNK         0.5053 
     51 O         -75.2201   26.3846  -74.3781 O.2       4 UNK        -0.5105 
     52 CA        -76.8665   24.8312  -73.6187 C.3       4 UNK         0.0263 
     53 CB        -77.4178   25.2972  -72.2647 C.3       4 UNK        -0.1981 
     54 N         -77.8741   24.0294  -74.3172 N.am      4 UNK        -0.4224 
     55 C         -77.6287   23.3386  -75.4416 C.2       3 UNK         0.4895 
     56 O         -76.5235   23.2752  -75.9788 O.2       3 UNK        -0.5091 
     57 CA        -78.8203   22.6373  -76.1143 C.3       3 UNK         0.0250 
     58 CB        -78.9637   21.2005  -75.5887 C.3       3 UNK        -0.1996 
     59 N         -80.0930   23.3436  -75.9545 N.am      3 UNK        -0.4254 
     60 C         -80.3386   24.6085  -76.3254 C.2       2 UNK         0.5004 
     61 O         -79.5028   25.3420  -76.8567 O.2       2 UNK        -0.5226 
     62 CA        -81.7444   25.1590  -76.0301 C.3       2 UNK         0.0269 
     63 CB        -82.8179   24.0632  -75.8420 C.3       2 UNK        -0.1926 
     64 N         -81.7632   26.0750  -74.8851 N.am      2 UNK        -0.4687 
     65 C         -81.3213   25.8661  -73.6351 C.2       1 UNK         0.5165 
     66 O         -80.7263   24.8459  -73.2789 O.2       1 UNK        -0.5079 
     67 H67       -85.5714   27.7392  -72.3108 H         1 UNK         0.0900 
     68 H68       -85.4485   29.3133  -73.0988 H         1 UNK         0.0900 
     69 H69       -85.8039   27.8721  -74.0555 H         1 UNK         0.0900 
     70 H70       -83.5773   26.8754  -71.8025 H         1 UNK         0.2959 
     71 H71       -81.1147   27.8677  -72.9801 H         1 UNK         0.1079 
     72 H72       -81.6209   25.8250  -70.7545 H         1 UNK         0.0837 
     73 H73       -80.0465   26.4010  -71.2165 H         1 UNK         0.0837 
     74 H74       -79.2127   27.5998  -68.9868 H         1 UNK         0.0685 
     75 H75       -79.5936   29.2991  -68.8453 H         1 UNK         0.0685 
     76 H76       -80.0548   29.6542  -72.0145 H         1 UNK         0.1434 
     77 H77       -76.0392   29.5427  -73.4992 H         1 UNK         0.1329 
     78 H78       -76.8998   28.0829  -69.5664 H         1 UNK         0.1335 
     79 H79       -74.6836   27.8326  -70.4579 H         1 UNK         0.0680 
     80 H80       -74.4619   27.9926  -72.1900 H         1 UNK         0.0680 
     81 H81       -72.2186   28.8738  -69.7727 H         1 UNK         0.1032 
     82 H82       -71.6183   30.3376  -70.4707 H         1 UNK         0.1032 
     83 H83       -70.4309   28.7484  -71.6545 H         1 UNK         0.0461 
     84 H84       -72.3326   25.5069  -72.8363 H         1 UNK         0.3453 
     85 H85       -72.4133   26.9838  -73.7564 H         1 UNK         0.3453 
     86 H86       -72.4673   28.8489  -73.7230 H         1 UNK         0.2984 
     87 H87       -72.4391   30.6830  -75.2744 H         1 UNK         0.0554 
     88 H88       -70.8614   32.6139  -75.1885 H         1 UNK         0.0847 
     89 H89       -70.9836   31.9655  -76.8148 H         1 UNK         0.0847 
     90 H90       -69.5674   31.6094  -75.8256 H         1 UNK         0.0847 
     91 H91       -70.2229   29.4027  -76.6562 H         1 UNK         0.3141 
     92 H92       -70.9018   27.3734  -77.9171 H         1 UNK         0.0743 
     93 H93       -69.1194   27.3370  -76.0838 H         1 UNK         0.0784 
     94 H94       -70.0622   26.1415  -75.2066 H         1 UNK         0.0784 
     95 H95       -69.3476   25.7458  -76.7672 H         1 UNK         0.0784 
     96 H96       -72.9775   26.1695  -76.4694 H         1 UNK         0.3213 
     97 H97       -73.0273   23.0080  -78.2079 H         1 UNK         0.0855 
     98 H98       -73.4909   23.9387  -75.3242 H         1 UNK         0.0814 
     99 H99       -72.2509   22.7884  -75.8108 H         1 UNK         0.0814 
    100 H100      -73.9456   22.3869  -76.0242 H         1 UNK         0.0814 
    101 H101      -75.2006   24.3609  -77.0752 H         1 UNK         0.3105 
    102 H102      -76.2473   26.2539  -79.9042 H         1 UNK         0.0547 
    103 H103      -78.2495   24.7639  -79.6818 H         1 UNK         0.0837 
    104 H104      -77.2629   23.5658  -78.8437 H         1 UNK         0.0837 
    105 H105      -76.9328   23.9599  -80.5228 H         1 UNK         0.0837 
    106 H106      -77.5782   25.6882  -77.4649 H         1 UNK         0.3020 
    107 H107      -76.3391   28.4410  -75.5969 H         1 UNK         0.1245 
    108 H108      -78.8582   28.0215  -77.2760 H         1 UNK         0.0781 
    109 H109      -77.9910   29.5052  -77.0087 H         1 UNK         0.0781 
    110 H110      -79.2818   31.0473  -74.0207 H         1 UNK         0.0836 
    111 H111      -77.7694   30.6470  -74.7947 H         1 UNK         0.0836 
    112 H112      -78.2554   26.2788  -75.2516 H         1 UNK         0.3022 
    113 H113      -75.9998   24.1921  -73.4361 H         1 UNK         0.0747 
    114 H114      -77.8336   24.4710  -71.6880 H         1 UNK         0.0793 
    115 H115      -76.6291   25.7519  -71.6642 H         1 UNK         0.0793 
    116 H116      -78.1948   26.0493  -72.3966 H         1 UNK         0.0793 
    117 H117      -78.8227   24.0636  -73.9589 H         1 UNK         0.3047 
    118 H118      -78.6105   22.5883  -77.1838 H         1 UNK         0.0822 
    119 H119      -79.7396   20.6556  -76.1267 H         1 UNK         0.0807 
    120 H120      -79.2127   21.1814  -74.5268 H         1 UNK         0.0807 
    121 H121      -78.0334   20.6444  -75.7155 H         1 UNK         0.0807 
    122 H122      -80.8353   22.8372  -75.4940 H         1 UNK         0.2946 
    123 H123      -82.0231   25.7479  -76.9057 H         1 UNK         0.1144 
    124 H124      -82.8291   23.3705  -76.6849 H         1 UNK         0.0793 
    125 H125      -83.8134   24.5035  -75.7812 H         1 UNK         0.0793 
    126 H126      -82.6645   23.4817  -74.9321 H         1 UNK         0.0793 
    127 H127      -82.2115   26.9723  -75.0509 H         1 UNK         0.2896 
@<TRIPOS>BOND
     1    1    2 1    
     2    1   67 1    
     3    1   68 1    
     4    1   69 1    
     5    2    3 2    
     6    2    4 am   BACKBONE|DICT|INTERRES
     7    4    5 1    
     8    4   70 1    
     9    5    6 1    
    10    5   65 1    
    11    5   71 1    
    12    6    7 1    
    13    6   72 1    
    14    6   73 1    
    15    7    8 1    
    16    8    9 1    
    17    8   74 1    
    18    8   75 1    
    19    9   10 ar   
    20    9   14 ar   
    21   10   11 ar   
    22   10   76 1    
    23   11   12 ar   
    24   11   48 1    
    25   12   13 ar   
    26   12   77 1    
    27   13   14 ar   
    28   13   15 1    
    29   14   78 1    
    30   15   16 1    
    31   15   79 1    
    32   15   80 1    
    33   16   17 1    
    34   17   18 1    
    35   17   81 1    
    36   17   82 1    
    37   18   19 1    
    38   18   22 1    
    39   18   83 1    
    40   19   20 am   BACKBONE|DICT|INTERRES
    41   19   21 2    
    42   20   84 1    
    43   20   85 1    
    44   22   23 am   BACKBONE|DICT|INTERRES
    45   22   86 1    
    46   23   24 2    
    47   23   25 1    
    48   25   26 1    
    49   25   27 1    
    50   25   87 1    
    51   26   88 1    
    52   26   89 1    
    53   26   90 1    
    54   27   28 am   BACKBONE|DICT|INTERRES
    55   27   91 1    
    56   28   29 2    
    57   28   30 1    
    58   30   31 1    
    59   30   32 1    
    60   30   92 1    
    61   31   93 1    
    62   31   94 1    
    63   31   95 1    
    64   32   33 am   BACKBONE|DICT|INTERRES
    65   32   96 1    
    66   33   34 2    
    67   33   35 1    
    68   35   36 1    
    69   35   37 1    
    70   35   97 1    
    71   36   98 1    
    72   36   99 1    
    73   36  100 1    
    74   37   38 am   BACKBONE|DICT|INTERRES
    75   37  101 1    
    76   38   39 2    
    77   38   40 1    
    78   40   41 1    
    79   40   42 1    
    80   40  102 1    
    81   41  103 1    
    82   41  104 1    
    83   41  105 1    
    84   42   43 am   BACKBONE|DICT|INTERRES
    85   42  106 1    
    86   43   44 2    
    87   43   45 1    
    88   45   46 1    
    89   45   49 1    
    90   45  107 1    
    91   46   47 1    
    92   46  108 1    
    93   46  109 1    
    94   47   48 1    
    95   48  110 1    
    96   48  111 1    
    97   49   50 am   BACKBONE|DICT|INTERRES
    98   49  112 1    
    99   50   51 2    
   100   50   52 1    
   101   52   53 1    
   102   52   54 1    
   103   52  113 1    
   104   53  114 1    
   105   53  115 1    
   106   53  116 1    
   107   54   55 am   BACKBONE|DICT|INTERRES
   108   54  117 1    
   109   55   56 2    
   110   55   57 1    
   111   57   58 1    
   112   57   59 1    
   113   57  118 1    
   114   58  119 1    
   115   58  120 1    
   116   58  121 1    
   117   59   60 am   BACKBONE|DICT|INTERRES
   118   59  122 1    
   119   60   61 2    
   120   60   62 1    
   121   62   63 1    
   122   62   64 1    
   123   62  123 1    
   124   63  124 1    
   125   63  125 1    
   126   63  126 1    
   127   64   65 am   BACKBONE|DICT|INTERRES
   128   64  127 1    
   129   65   66 2    
@<TRIPOS>SUBSTRUCTURE
     1 UNK         1 GROUP             0       ****    0 ROOT    
