@<TRIPOS>MOLECULE
3R135
127   129    1
SMALL
USER_CHARGES


@<TRIPOS>ATOM
      1 CA        -85.1356   28.5261  -77.6248 C.3       0 UNK        -0.1998 
      2 C         -84.2601   28.5922  -76.3818 C.2       0 UNK         0.4909 
      3 O         -84.7893   28.6086  -75.2708 O.2       0 UNK        -0.5240 
      4 N         -82.9342   28.6421  -76.5754 N.am      1 UNK        -0.4739 
      5 CA        -81.8810   28.6509  -75.5529 C.3       1 UNK         0.0864 
      6 C6        -82.0046   29.8196  -74.5356 C.3       11 UNK        -0.0881 
      7 S7        -80.3825   30.2821  -73.8425 S.3       11 UNK        -0.2682 
      8 C8        -80.4938   29.5957  -72.1580 C.3       11 UNK         0.0289 
      9 C9        -79.1270   29.2598  -71.5697 C.ar      11 UNK        -0.0687 
     10 C10       -78.8860   27.9821  -71.0547 C.ar      11 UNK        -0.0823 
     11 C11       -77.6522   27.6658  -70.4781 C.ar      11 UNK        -0.0830 
     12 C12       -76.6493   28.6364  -70.4226 C.ar      11 UNK        -0.1021 
     13 C13       -76.8699   29.9142  -70.9448 C.ar      11 UNK        -0.0753 
     14 C14       -78.1121   30.2218  -71.5101 C.ar      11 UNK        -0.0933 
     15 C15       -75.7763   30.9704  -70.8770 C.3       11 UNK         0.0166 
     16 S16       -74.6140   30.8317  -72.2711 S.3       11 UNK        -0.2615 
     17 C17       -73.5809   29.4187  -71.7470 C.3       11 UNK        -0.0865 
     18 CA        -72.1969   29.3928  -72.4498 C.3       10 UNK         0.0862 
     19 C         -71.2704   28.2797  -71.8765 C.2       10 UNK         0.5551 
     20 N         -70.5728   27.4985  -72.6943 N.am      10 UNK        -0.7319 
     21 O         -71.1672   28.1305  -70.6614 O.2       10 UNK        -0.5018 
     22 N         -72.3419   29.3137  -73.9098 N.am      10 UNK        -0.4509 
     23 C         -71.6628   30.0476  -74.7970 C.2       10 UNK         0.4899 
     24 O         -70.8540   30.9246  -74.4873 O.2       10 UNK        -0.4839 
     25 CA        -71.9397   29.7481  -76.2827 C.3       9 UNK         0.0222 
     26 CB        -70.8643   30.3299  -77.2253 C.3       9 UNK        -0.1966 
     27 N         -72.1595   28.3235  -76.5631 N.am      9 UNK        -0.4218 
     28 C         -71.3004   27.3094  -76.3691 C.2       9 UNK         0.5020 
     29 O         -70.1906   27.4565  -75.8539 O.2       9 UNK        -0.5274 
     30 CA        -71.7352   25.8898  -76.7980 C.3       8 UNK         0.0270 
     31 CB        -71.4019   24.8517  -75.7107 C.3       8 UNK        -0.1976 
     32 N         -73.1577   25.7816  -77.1296 N.am      8 UNK        -0.4313 
     33 C         -73.7322   26.1604  -78.2786 C.2       8 UNK         0.5041 
     34 O         -73.1054   26.5714  -79.2551 O.2       8 UNK        -0.5577 
     35 CA        -75.2720   26.1452  -78.3154 C.3       7 UNK         0.0284 
     36 CB        -75.7959   24.7748  -78.7687 C.3       7 UNK        -0.1958 
     37 N         -75.8712   26.5022  -77.0239 N.am      7 UNK        -0.4454 
     38 C         -75.7378   27.6976  -76.4297 C.2       7 UNK         0.5089 
     39 O         -75.1474   28.6500  -76.9388 O.2       7 UNK        -0.5125 
     40 CA        -76.3068   27.8397  -75.0087 C.3       6 UNK         0.0408 
     41 CB        -77.7946   28.1938  -75.0538 C.3       6 UNK        -0.1791 
     42 N         -76.0972   26.6391  -74.1932 N.am      6 UNK        -0.4762 
     43 C         -74.8912   26.2595  -73.7526 C.2       6 UNK         0.5007 
     44 O         -73.8524   26.8626  -74.0230 O.2       6 UNK        -0.5032 
     45 CA        -74.8144   24.9863  -72.8888 C.3       5 UNK         0.0783 
     46 C46       -75.2751   25.2359  -71.4267 C.3       11 UNK        -0.0857 
     47 S47       -77.0774   25.0477  -71.1713 S.3       11 UNK        -0.2512 
     48 C48       -77.4231   26.2846  -69.8854 C.3       11 UNK         0.0225 
     49 N         -75.4594   23.8060  -73.4764 N.am      5 UNK        -0.4615 
     50 C         -75.2629   23.3007  -74.6996 C.2       4 UNK         0.5053 
     51 O         -74.5776   23.8413  -75.5649 O.2       4 UNK        -0.5105 
     52 CA        -75.9391   21.9569  -75.0045 C.3       4 UNK         0.0263 
     53 CB        -76.0568   21.0400  -73.7695 C.3       4 UNK        -0.1981 
     54 N         -77.2706   22.1952  -75.5539 N.am      4 UNK        -0.4224 
     55 C         -77.6197   22.0265  -76.8355 C.2       3 UNK         0.4895 
     56 O         -76.8537   21.6184  -77.7090 O.2       3 UNK        -0.5091 
     57 CA        -79.0796   22.3383  -77.2170 C.3       3 UNK         0.0250 
     58 CB        -79.8518   21.0356  -77.4865 C.3       3 UNK        -0.1996 
     59 N         -79.8120   23.1257  -76.2175 N.am      3 UNK        -0.4254 
     60 C         -79.6294   24.4345  -76.0060 C.2       2 UNK         0.5004 
     61 O         -78.7789   25.1131  -76.5869 O.2       2 UNK        -0.5226 
     62 CA        -80.5237   25.0928  -74.9505 C.3       2 UNK         0.0269 
     63 CB        -79.8189   25.1113  -73.5801 C.3       2 UNK        -0.1926 
     64 N         -80.8237   26.4501  -75.3979 N.am      2 UNK        -0.4687 
     65 C         -81.7526   27.2642  -74.8845 C.2       1 UNK         0.5165 
     66 O         -82.4892   26.9492  -73.9477 O.2       1 UNK        -0.5079 
     67 H67       -85.8108   29.3809  -77.6537 H         1 UNK         0.0900 
     68 H68       -84.5466   28.5291  -78.5418 H         1 UNK         0.0900 
     69 H69       -85.7370   27.6174  -77.6117 H         1 UNK         0.0900 
     70 H70       -82.5925   28.6189  -77.5268 H         1 UNK         0.2959 
     71 H71       -80.9627   28.8214  -76.1183 H         1 UNK         0.1079 
     72 H72       -82.3915   30.7063  -75.0400 H         1 UNK         0.0837 
     73 H73       -82.7212   29.5992  -73.7420 H         1 UNK         0.0837 
     74 H74       -80.9977   30.3153  -71.5116 H         1 UNK         0.0685 
     75 H75       -81.1209   28.7032  -72.1755 H         1 UNK         0.0685 
     76 H76       -79.6632   27.2308  -71.0899 H         1 UNK         0.1434 
     77 H77       -75.6980   28.4000  -69.9670 H         1 UNK         0.1329 
     78 H78       -78.2914   31.2121  -71.9059 H         1 UNK         0.1335 
     79 H79       -76.2213   31.9664  -70.8960 H         1 UNK         0.0680 
     80 H80       -75.2378   30.9006  -69.9308 H         1 UNK         0.0680 
     81 H81       -73.4495   29.4738  -70.6649 H         1 UNK         0.1032 
     82 H82       -74.1283   28.4970  -71.9416 H         1 UNK         0.1032 
     83 H83       -71.6989   30.3294  -72.1933 H         1 UNK         0.0461 
     84 H84       -69.9723   26.7902  -72.3044 H         1 UNK         0.3453 
     85 H85       -70.6172   27.6266  -73.6968 H         1 UNK         0.3453 
     86 H86       -72.9432   28.5625  -74.2364 H         1 UNK         0.2984 
     87 H87       -72.8813   30.2471  -76.5157 H         1 UNK         0.0554 
     88 H88       -70.7940   31.4131  -77.1185 H         1 UNK         0.0847 
     89 H89       -71.0986   30.1241  -78.2697 H         1 UNK         0.0847 
     90 H90       -69.8766   29.9183  -77.0152 H         1 UNK         0.0847 
     91 H91       -73.0763   28.1037  -76.9354 H         1 UNK         0.3141 
     92 H92       -71.1563   25.6395  -77.6890 H         1 UNK         0.0743 
     93 H93       -71.9143   25.0731  -74.7741 H         1 UNK         0.0784 
     94 H94       -71.6903   23.8468  -76.0197 H         1 UNK         0.0784 
     95 H95       -70.3320   24.8287  -75.4999 H         1 UNK         0.0784 
     96 H96       -73.7546   25.3792  -76.4104 H         1 UNK         0.3213 
     97 H97       -75.5931   26.8914  -79.0453 H         1 UNK         0.0855 
     98 H98       -75.4803   23.9795  -78.0933 H         1 UNK         0.0814 
     99 H99       -75.4213   24.5239  -79.7618 H         1 UNK         0.0814 
    100 H100      -76.8850   24.7600  -78.8181 H         1 UNK         0.0814 
    101 H101      -76.3948   25.7811  -76.5454 H         1 UNK         0.3105 
    102 H102      -75.7867   28.6666  -74.5190 H         1 UNK         0.0547 
    103 H103      -77.9431   29.1794  -75.4964 H         1 UNK         0.0837 
    104 H104      -78.3558   27.4825  -75.6536 H         1 UNK         0.0837 
    105 H105      -78.2279   28.2150  -74.0551 H         1 UNK         0.0837 
    106 H106      -76.9064   26.0981  -73.9274 H         1 UNK         0.3020 
    107 H107      -73.7501   24.7432  -72.8449 H         1 UNK         0.1245 
    108 H108      -74.9448   26.2136  -71.0712 H         1 UNK         0.0781 
    109 H109      -74.7865   24.5130  -70.7715 H         1 UNK         0.0781 
    110 H110      -76.6127   26.2984  -69.1548 H         1 UNK         0.0836 
    111 H111      -78.3153   25.9773  -69.3378 H         1 UNK         0.0836 
    112 H112      -76.0631   23.3003  -72.8450 H         1 UNK         0.3022 
    113 H113      -75.3073   21.4450  -75.7338 H         1 UNK         0.0747 
    114 H114      -76.4036   20.0474  -74.0577 H         1 UNK         0.0793 
    115 H115      -75.0893   20.9101  -73.2821 H         1 UNK         0.0793 
    116 H116      -76.7557   21.4246  -73.0259 H         1 UNK         0.0793 
    117 H117      -77.9677   22.5537  -74.9188 H         1 UNK         0.3047 
    118 H118      -79.0488   22.9129  -78.1457 H         1 UNK         0.0822 
    119 H119      -79.3576   20.4393  -78.2550 H         1 UNK         0.0807 
    120 H120      -80.8630   21.2385  -77.8399 H         1 UNK         0.0807 
    121 H121      -79.9249   20.4163  -76.5916 H         1 UNK         0.0807 
    122 H122      -80.5220   22.6358  -75.6911 H         1 UNK         0.2946 
    123 H123      -81.4595   24.5342  -74.8750 H         1 UNK         0.1144 
    124 H124      -80.4722   25.4999  -72.7993 H         1 UNK         0.0793 
    125 H125      -78.9222   25.7299  -73.5977 H         1 UNK         0.0793 
    126 H126      -79.5207   24.1081  -73.2734 H         1 UNK         0.0793 
    127 H127      -80.2720   26.7442  -76.1943 H         1 UNK         0.2896 
@<TRIPOS>BOND
     1    1    2 1    
     2    1   67 1    
     3    1   68 1    
     4    1   69 1    
     5    2    3 2    
     6    2    4 am   BACKBONE|DICT|INTERRES
     7    4    5 1    
     8    4   70 1    
     9    5    6 1    
    10    5   65 1    
    11    5   71 1    
    12    6    7 1    
    13    6   72 1    
    14    6   73 1    
    15    7    8 1    
    16    8    9 1    
    17    8   74 1    
    18    8   75 1    
    19    9   10 ar   
    20    9   14 ar   
    21   10   11 ar   
    22   10   76 1    
    23   11   12 ar   
    24   11   48 1    
    25   12   13 ar   
    26   12   77 1    
    27   13   14 ar   
    28   13   15 1    
    29   14   78 1    
    30   15   16 1    
    31   15   79 1    
    32   15   80 1    
    33   16   17 1    
    34   17   18 1    
    35   17   81 1    
    36   17   82 1    
    37   18   19 1    
    38   18   22 1    
    39   18   83 1    
    40   19   20 am   BACKBONE|DICT|INTERRES
    41   19   21 2    
    42   20   84 1    
    43   20   85 1    
    44   22   23 am   BACKBONE|DICT|INTERRES
    45   22   86 1    
    46   23   24 2    
    47   23   25 1    
    48   25   26 1    
    49   25   27 1    
    50   25   87 1    
    51   26   88 1    
    52   26   89 1    
    53   26   90 1    
    54   27   28 am   BACKBONE|DICT|INTERRES
    55   27   91 1    
    56   28   29 2    
    57   28   30 1    
    58   30   31 1    
    59   30   32 1    
    60   30   92 1    
    61   31   93 1    
    62   31   94 1    
    63   31   95 1    
    64   32   33 am   BACKBONE|DICT|INTERRES
    65   32   96 1    
    66   33   34 2    
    67   33   35 1    
    68   35   36 1    
    69   35   37 1    
    70   35   97 1    
    71   36   98 1    
    72   36   99 1    
    73   36  100 1    
    74   37   38 am   BACKBONE|DICT|INTERRES
    75   37  101 1    
    76   38   39 2    
    77   38   40 1    
    78   40   41 1    
    79   40   42 1    
    80   40  102 1    
    81   41  103 1    
    82   41  104 1    
    83   41  105 1    
    84   42   43 am   BACKBONE|DICT|INTERRES
    85   42  106 1    
    86   43   44 2    
    87   43   45 1    
    88   45   46 1    
    89   45   49 1    
    90   45  107 1    
    91   46   47 1    
    92   46  108 1    
    93   46  109 1    
    94   47   48 1    
    95   48  110 1    
    96   48  111 1    
    97   49   50 am   BACKBONE|DICT|INTERRES
    98   49  112 1    
    99   50   51 2    
   100   50   52 1    
   101   52   53 1    
   102   52   54 1    
   103   52  113 1    
   104   53  114 1    
   105   53  115 1    
   106   53  116 1    
   107   54   55 am   BACKBONE|DICT|INTERRES
   108   54  117 1    
   109   55   56 2    
   110   55   57 1    
   111   57   58 1    
   112   57   59 1    
   113   57  118 1    
   114   58  119 1    
   115   58  120 1    
   116   58  121 1    
   117   59   60 am   BACKBONE|DICT|INTERRES
   118   59  122 1    
   119   60   61 2    
   120   60   62 1    
   121   62   63 1    
   122   62   64 1    
   123   62  123 1    
   124   63  124 1    
   125   63  125 1    
   126   63  126 1    
   127   64   65 am   BACKBONE|DICT|INTERRES
   128   64  127 1    
   129   65   66 2    
@<TRIPOS>SUBSTRUCTURE
     1 UNK         1 GROUP             0       ****    0 ROOT    
