@<TRIPOS>MOLECULE
3R135
127   129    1
SMALL
USER_CHARGES


@<TRIPOS>ATOM
      1 CA        -86.2712   26.5448  -69.9607 C.3       0 UNK        -0.1998 
      2 C         -84.9736   26.0457  -70.5794 C.2       0 UNK         0.4909 
      3 O         -84.5707   24.9125  -70.3142 O.2       0 UNK        -0.5240 
      4 N         -84.3209   26.8891  -71.3924 N.am      1 UNK        -0.4739 
      5 CA        -83.0863   26.6061  -72.1385 C.3       1 UNK         0.0864 
      6 C6        -81.8942   26.2331  -71.2053 C.3       11 UNK        -0.0881 
      7 S7        -80.2660   26.6300  -71.9278 S.3       11 UNK        -0.2682 
      8 C8        -79.8630   28.1938  -71.1005 C.3       11 UNK         0.0289 
      9 C9        -78.6825   28.8603  -71.7863 C.ar      11 UNK        -0.0687 
     10 C10       -78.9013   29.8003  -72.7969 C.ar      11 UNK        -0.0823 
     11 C11       -77.8249   30.4151  -73.4433 C.ar      11 UNK        -0.0830 
     12 C12       -76.5199   30.0820  -73.0652 C.ar      11 UNK        -0.1021 
     13 C13       -76.2882   29.1294  -72.0672 C.ar      11 UNK        -0.0753 
     14 C14       -77.3741   28.5264  -71.4258 C.ar      11 UNK        -0.0933 
     15 C15       -74.8655   28.7307  -71.7080 C.3       11 UNK         0.0166 
     16 S16       -73.9576   30.1100  -70.9413 S.3       11 UNK        -0.2615 
     17 C17       -72.2893   29.3909  -70.7560 C.3       11 UNK        -0.0865 
     18 CA        -71.3419   29.7708  -71.9260 C.3       10 UNK         0.0862 
     19 C         -69.8669   29.3794  -71.6109 C.2       10 UNK         0.5551 
     20 N         -69.2052   28.5404  -72.4001 N.am      10 UNK        -0.7319 
     21 O         -69.3070   29.8568  -70.6270 O.2       10 UNK        -0.5018 
     22 N         -71.8441   29.2442  -73.2022 N.am      10 UNK        -0.4509 
     23 C         -71.5632   29.7299  -74.4160 C.2       10 UNK         0.4899 
     24 O         -70.8966   30.7471  -74.6121 O.2       10 UNK        -0.4839 
     25 CA        -72.1291   28.9270  -75.6060 C.3       9 UNK         0.0222 
     26 CB        -71.3634   29.1823  -76.9204 C.3       9 UNK        -0.1966 
     27 N         -72.2374   27.4829  -75.3471 N.am      9 UNK        -0.4218 
     28 C         -71.2471   26.6458  -74.9959 C.2       9 UNK         0.5020 
     29 O         -70.0816   26.9966  -74.8081 O.2       9 UNK        -0.5274 
     30 CA        -71.6235   25.1732  -74.7945 C.3       8 UNK         0.0270 
     31 CB        -72.2271   24.9562  -73.3953 C.3       8 UNK        -0.1976 
     32 N         -72.5705   24.7271  -75.8196 N.am      8 UNK        -0.4313 
     33 C         -72.2537   23.9250  -76.8440 C.2       8 UNK         0.5041 
     34 O         -71.1337   23.4424  -77.0198 O.2       8 UNK        -0.5577 
     35 CA        -73.3717   23.5869  -77.8427 C.3       7 UNK         0.0284 
     36 CB        -74.2496   22.4419  -77.3110 C.3       7 UNK        -0.1958 
     37 N         -74.2181   24.7278  -78.1967 N.am      7 UNK        -0.4454 
     38 C         -73.8300   25.7562  -78.9648 C.2       7 UNK         0.5089 
     39 O         -72.6812   25.9089  -79.3798 O.2       7 UNK        -0.5125 
     40 CA        -74.9121   26.7730  -79.3596 C.3       6 UNK         0.0408 
     41 CB        -75.8003   26.2053  -80.4791 C.3       6 UNK        -0.1791 
     42 N         -75.7464   27.1257  -78.2115 N.am      6 UNK        -0.4762 
     43 C         -75.6213   28.2535  -77.4980 C.2       6 UNK         0.5007 
     44 O         -74.8472   29.1622  -77.7977 O.2       6 UNK        -0.5032 
     45 CA        -76.4813   28.3874  -76.2186 C.3       5 UNK         0.0783 
     46 C46       -77.6930   29.3336  -76.4292 C.3       11 UNK        -0.0857 
     47 S47       -77.2346   31.0731  -76.1134 S.3       11 UNK        -0.2512 
     48 C48       -78.0879   31.4412  -74.5416 C.3       11 UNK         0.0225 
     49 N         -76.8873   27.0964  -75.6523 N.am      5 UNK        -0.4615 
     50 C         -76.0341   26.1985  -75.1428 C.2       4 UNK         0.5053 
     51 O         -74.8163   26.3722  -75.0894 O.2       4 UNK        -0.5105 
     52 CA        -76.6144   24.8550  -74.6707 C.3       4 UNK         0.0263 
     53 CB        -76.9610   24.9331  -73.1772 C.3       4 UNK        -0.1981 
     54 N         -77.7829   24.3851  -75.4286 N.am      4 UNK        -0.4224 
     55 C         -77.8497   24.2349  -76.7612 C.2       3 UNK         0.4895 
     56 O         -76.9240   24.5246  -77.5200 O.2       3 UNK        -0.5091 
     57 CA        -79.1463   23.6719  -77.3737 C.3       3 UNK         0.0250 
     58 CB        -78.8756   22.3000  -78.0142 C.3       3 UNK        -0.1996 
     59 N         -80.2822   23.5490  -76.4524 N.am      3 UNK        -0.4254 
     60 C         -80.9543   24.5681  -75.8998 C.2       2 UNK         0.5004 
     61 O         -80.6346   25.7496  -76.0487 O.2       2 UNK        -0.5226 
     62 CA        -82.1762   24.2173  -75.0328 C.3       2 UNK         0.0269 
     63 CB        -82.2015   22.7590  -74.5247 C.3       2 UNK        -0.1926 
     64 N         -82.2213   25.1333  -73.8981 N.am      2 UNK        -0.4687 
     65 C         -83.3183   25.6003  -73.2962 C.2       1 UNK         0.5165 
     66 O         -84.4623   25.2947  -73.6460 O.2       1 UNK        -0.5079 
     67 H67       -87.1000   25.9042  -70.2612 H         1 UNK         0.0900 
     68 H68       -86.2009   26.5239  -68.8735 H         1 UNK         0.0900 
     69 H69       -86.5037   27.5650  -70.2656 H         1 UNK         0.0900 
     70 H70       -84.7324   27.7925  -71.5827 H         1 UNK         0.2959 
     71 H71       -82.8416   27.5508  -72.6273 H         1 UNK         0.1079 
     72 H72       -81.9169   25.1723  -70.9481 H         1 UNK         0.0837 
     73 H73       -81.9803   26.7626  -70.2550 H         1 UNK         0.0837 
     74 H74       -80.7316   28.8542  -71.1194 H         1 UNK         0.0685 
     75 H75       -79.6362   28.0046  -70.0502 H         1 UNK         0.0685 
     76 H76       -79.9147   30.0488  -73.0816 H         1 UNK         0.1434 
     77 H77       -75.6811   30.5544  -73.5583 H         1 UNK         0.1329 
     78 H78       -77.2048   27.7862  -70.6558 H         1 UNK         0.1335 
     79 H79       -74.8616   27.8779  -71.0273 H         1 UNK         0.0680 
     80 H80       -74.3596   28.4040  -72.6163 H         1 UNK         0.0680 
     81 H81       -71.8896   29.7602  -69.8094 H         1 UNK         0.1032 
     82 H82       -72.3584   28.3071  -70.6461 H         1 UNK         0.1032 
     83 H83       -71.3410   30.8600  -72.0010 H         1 UNK         0.0461 
     84 H84       -69.6344   28.1407  -73.2277 H         1 UNK         0.3453 
     85 H85       -68.2510   28.3084  -72.1750 H         1 UNK         0.3453 
     86 H86       -72.3772   28.3911  -73.1481 H         1 UNK         0.2984 
     87 H87       -73.1490   29.2867  -75.7414 H         1 UNK         0.0554 
     88 H88       -71.3891   30.2385  -77.1910 H         1 UNK         0.0847 
     89 H89       -71.8069   28.6282  -77.7482 H         1 UNK         0.0847 
     90 H90       -70.3159   28.8897  -76.8417 H         1 UNK         0.0847 
     91 H91       -73.1808   27.1015  -75.3896 H         1 UNK         0.3141 
     92 H92       -70.7015   24.5904  -74.8490 H         1 UNK         0.0743 
     93 H93       -73.1433   25.5275  -73.2452 H         1 UNK         0.0784 
     94 H94       -72.4599   23.9048  -73.2266 H         1 UNK         0.0784 
     95 H95       -71.5242   25.2598  -72.6182 H         1 UNK         0.0784 
     96 H96       -73.5085   25.1106  -75.7638 H         1 UNK         0.3213 
     97 H97       -72.8918   23.2377  -78.7598 H         1 UNK         0.0855 
     98 H98       -74.7770   22.7229  -76.4000 H         1 UNK         0.0814 
     99 H99       -73.6463   21.5628  -77.0804 H         1 UNK         0.0814 
    100 H100      -74.9947   22.1391  -78.0470 H         1 UNK         0.0814 
    101 H101      -75.1995   24.6652  -77.9298 H         1 UNK         0.3105 
    102 H102      -74.4096   27.6592  -79.7531 H         1 UNK         0.0547 
    103 H103      -75.2026   25.9297  -81.3490 H         1 UNK         0.0837 
    104 H104      -76.3417   25.3139  -80.1595 H         1 UNK         0.0837 
    105 H105      -76.5341   26.9399  -80.8107 H         1 UNK         0.0837 
    106 H106      -76.3788   26.4052  -77.8784 H         1 UNK         0.3020 
    107 H107      -75.8217   28.8333  -75.4714 H         1 UNK         0.1245 
    108 H108      -78.5139   29.0668  -75.7619 H         1 UNK         0.0781 
    109 H109      -78.1038   29.2470  -77.4371 H         1 UNK         0.0781 
    110 H110      -79.1567   31.5243  -74.7447 H         1 UNK         0.0836 
    111 H111      -77.7677   32.4228  -74.1900 H         1 UNK         0.0836 
    112 H112      -77.8724   26.8733  -75.6741 H         1 UNK         0.3022 
    113 H113      -75.8312   24.1058  -74.7938 H         1 UNK         0.0747 
    114 H114      -77.3125   23.9748  -72.7947 H         1 UNK         0.0793 
    115 H115      -76.0870   25.2155  -72.5881 H         1 UNK         0.0793 
    116 H116      -77.7323   25.6784  -72.9851 H         1 UNK         0.0793 
    117 H117      -78.5962   24.1293  -74.8892 H         1 UNK         0.3047 
    118 H118      -79.4389   24.3634  -78.1667 H         1 UNK         0.0822 
    119 H119      -79.7530   21.9275  -78.5431 H         1 UNK         0.0807 
    120 H120      -78.5893   21.5563  -77.2695 H         1 UNK         0.0807 
    121 H121      -78.0650   22.3588  -78.7425 H         1 UNK         0.0807 
    122 H122      -80.6021   22.6102  -76.2610 H         1 UNK         0.2946 
    123 H123      -83.0540   24.3836  -75.6616 H         1 UNK         0.1144 
    124 H124      -83.0677   22.5819  -73.8866 H         1 UNK         0.0793 
    125 H125      -81.3112   22.5166  -73.9428 H         1 UNK         0.0793 
    126 H126      -82.2718   22.0474  -75.3481 H         1 UNK         0.0793 
    127 H127      -81.3251   25.4951  -73.5919 H         1 UNK         0.2896 
@<TRIPOS>BOND
     1    1    2 1    
     2    1   67 1    
     3    1   68 1    
     4    1   69 1    
     5    2    3 2    
     6    2    4 am   BACKBONE|DICT|INTERRES
     7    4    5 1    
     8    4   70 1    
     9    5    6 1    
    10    5   65 1    
    11    5   71 1    
    12    6    7 1    
    13    6   72 1    
    14    6   73 1    
    15    7    8 1    
    16    8    9 1    
    17    8   74 1    
    18    8   75 1    
    19    9   10 ar   
    20    9   14 ar   
    21   10   11 ar   
    22   10   76 1    
    23   11   12 ar   
    24   11   48 1    
    25   12   13 ar   
    26   12   77 1    
    27   13   14 ar   
    28   13   15 1    
    29   14   78 1    
    30   15   16 1    
    31   15   79 1    
    32   15   80 1    
    33   16   17 1    
    34   17   18 1    
    35   17   81 1    
    36   17   82 1    
    37   18   19 1    
    38   18   22 1    
    39   18   83 1    
    40   19   20 am   BACKBONE|DICT|INTERRES
    41   19   21 2    
    42   20   84 1    
    43   20   85 1    
    44   22   23 am   BACKBONE|DICT|INTERRES
    45   22   86 1    
    46   23   24 2    
    47   23   25 1    
    48   25   26 1    
    49   25   27 1    
    50   25   87 1    
    51   26   88 1    
    52   26   89 1    
    53   26   90 1    
    54   27   28 am   BACKBONE|DICT|INTERRES
    55   27   91 1    
    56   28   29 2    
    57   28   30 1    
    58   30   31 1    
    59   30   32 1    
    60   30   92 1    
    61   31   93 1    
    62   31   94 1    
    63   31   95 1    
    64   32   33 am   BACKBONE|DICT|INTERRES
    65   32   96 1    
    66   33   34 2    
    67   33   35 1    
    68   35   36 1    
    69   35   37 1    
    70   35   97 1    
    71   36   98 1    
    72   36   99 1    
    73   36  100 1    
    74   37   38 am   BACKBONE|DICT|INTERRES
    75   37  101 1    
    76   38   39 2    
    77   38   40 1    
    78   40   41 1    
    79   40   42 1    
    80   40  102 1    
    81   41  103 1    
    82   41  104 1    
    83   41  105 1    
    84   42   43 am   BACKBONE|DICT|INTERRES
    85   42  106 1    
    86   43   44 2    
    87   43   45 1    
    88   45   46 1    
    89   45   49 1    
    90   45  107 1    
    91   46   47 1    
    92   46  108 1    
    93   46  109 1    
    94   47   48 1    
    95   48  110 1    
    96   48  111 1    
    97   49   50 am   BACKBONE|DICT|INTERRES
    98   49  112 1    
    99   50   51 2    
   100   50   52 1    
   101   52   53 1    
   102   52   54 1    
   103   52  113 1    
   104   53  114 1    
   105   53  115 1    
   106   53  116 1    
   107   54   55 am   BACKBONE|DICT|INTERRES
   108   54  117 1    
   109   55   56 2    
   110   55   57 1    
   111   57   58 1    
   112   57   59 1    
   113   57  118 1    
   114   58  119 1    
   115   58  120 1    
   116   58  121 1    
   117   59   60 am   BACKBONE|DICT|INTERRES
   118   59  122 1    
   119   60   61 2    
   120   60   62 1    
   121   62   63 1    
   122   62   64 1    
   123   62  123 1    
   124   63  124 1    
   125   63  125 1    
   126   63  126 1    
   127   64   65 am   BACKBONE|DICT|INTERRES
   128   64  127 1    
   129   65   66 2    
@<TRIPOS>SUBSTRUCTURE
     1 UNK         1 GROUP             0       ****    0 ROOT    
