@<TRIPOS>MOLECULE
3R135
127   129    1
SMALL
USER_CHARGES


@<TRIPOS>ATOM
      1 CA        -84.9816   28.5071  -72.7756 C.3       0 UNK        -0.1998 
      2 C         -83.8099   27.5374  -72.7554 C.2       0 UNK         0.4909 
      3 O         -84.0149   26.3397  -72.5548 O.2       0 UNK        -0.5240 
      4 N         -82.5895   28.0464  -72.9786 N.am      1 UNK        -0.4739 
      5 CA        -81.2910   27.3465  -72.9821 C.3       1 UNK         0.0864 
      6 C6        -80.9549   26.6109  -71.6561 C.3       11 UNK        -0.0881 
      7 S7        -80.9804   27.7362  -70.2177 S.3       11 UNK        -0.2682 
      8 C8        -79.2384   27.7110  -69.6683 C.3       11 UNK         0.0289 
      9 C9        -78.2316   28.2209  -70.6990 C.ar      11 UNK        -0.0687 
     10 C10       -78.5298   29.2870  -71.5568 C.ar      11 UNK        -0.0823 
     11 C11       -77.5959   29.7387  -72.4948 C.ar      11 UNK        -0.0830 
     12 C12       -76.3301   29.1455  -72.5310 C.ar      11 UNK        -0.1021 
     13 C13       -76.0125   28.0863  -71.6768 C.ar      11 UNK        -0.0753 
     14 C14       -76.9678   27.6266  -70.7676 C.ar      11 UNK        -0.0933 
     15 C15       -74.6528   27.4109  -71.7672 C.3       11 UNK         0.0166 
     16 S16       -73.4412   28.0398  -70.5557 S.3       11 UNK        -0.2615 
     17 C17       -73.2895   29.8235  -70.9466 C.3       11 UNK        -0.0865 
     18 CA        -72.2660   30.1687  -72.0624 C.3       10 UNK         0.0862 
     19 C         -70.7877   29.9510  -71.6209 C.2       10 UNK         0.5551 
     20 N         -69.9776   29.1762  -72.3339 N.am      10 UNK        -0.7319 
     21 O         -70.3610   30.5154  -70.6164 O.2       10 UNK        -0.5018 
     22 N         -72.6301   29.5213  -73.3272 N.am      10 UNK        -0.4509 
     23 C         -72.3661   29.9833  -74.5530 C.2       10 UNK         0.4899 
     24 O         -71.8408   31.0745  -74.7775 O.2       10 UNK        -0.4839 
     25 CA        -72.7692   29.0567  -75.7189 C.3       9 UNK         0.0222 
     26 CB        -72.0258   29.3854  -77.0297 C.3       9 UNK        -0.1966 
     27 N         -72.6551   27.6209  -75.4153 N.am      9 UNK        -0.4218 
     28 C         -71.5531   26.9676  -75.0110 C.2       9 UNK         0.5020 
     29 O         -70.4824   27.5173  -74.7506 O.2       9 UNK        -0.5274 
     30 CA        -71.6617   25.4444  -74.8640 C.3       8 UNK         0.0270 
     31 CB        -72.1321   25.0611  -73.4510 C.3       8 UNK        -0.1976 
     32 N         -72.5692   24.8701  -75.8605 N.am      8 UNK        -0.4313 
     33 C         -72.1732   24.3676  -77.0366 C.2       8 UNK         0.5041 
     34 O         -70.9980   24.3173  -77.4034 O.2       8 UNK        -0.5577 
     35 CA        -73.2686   23.8039  -77.9533 C.3       7 UNK         0.0284 
     36 CB        -73.8333   22.4904  -77.3855 C.3       7 UNK        -0.1958 
     37 N         -74.3660   24.7410  -78.1942 N.am      7 UNK        -0.4454 
     38 C         -74.2916   25.8299  -78.9726 C.2       7 UNK         0.5089 
     39 O         -73.2566   26.2195  -79.5131 O.2       7 UNK        -0.5125 
     40 CA        -75.5987   26.6057  -79.2029 C.3       6 UNK         0.0408 
     41 CB        -76.5290   25.8413  -80.1599 C.3       6 UNK        -0.1791 
     42 N         -76.2871   26.8503  -77.9351 N.am      6 UNK        -0.4762 
     43 C         -76.2314   28.0045  -77.2548 C.2       6 UNK         0.5007 
     44 O         -75.7088   29.0242  -77.7044 O.2       6 UNK        -0.5032 
     45 CA        -76.8180   28.0330  -75.8228 C.3       5 UNK         0.0783 
     46 C46       -77.9685   29.0633  -75.6567 C.3       11 UNK        -0.0857 
     47 S47       -77.3366   30.7016  -75.1491 S.3       11 UNK        -0.2512 
     48 C48       -77.9728   30.8781  -73.4420 C.3       11 UNK         0.0225 
     49 N         -77.1792   26.7074  -75.3073 N.am      5 UNK        -0.4615 
     50 C         -76.2804   25.7930  -74.9198 C.2       4 UNK         0.5053 
     51 O         -75.0624   25.9656  -74.9935 O.2       4 UNK        -0.5105 
     52 CA        -76.8197   24.4426  -74.4249 C.3       4 UNK         0.0263 
     53 CB        -77.3088   24.5593  -72.9740 C.3       4 UNK        -0.1981 
     54 N         -77.8925   23.8919  -75.2577 N.am      4 UNK        -0.4224 
     55 C         -77.8253   23.6438  -76.5719 C.2       3 UNK         0.4895 
     56 O         -76.8435   23.9119  -77.2623 O.2       3 UNK        -0.5091 
     57 CA        -79.0587   23.0187  -77.2482 C.3       3 UNK         0.0250 
     58 CB        -79.1220   21.4990  -77.0008 C.3       3 UNK        -0.1996 
     59 N         -80.3251   23.6876  -76.9172 N.am      3 UNK        -0.4254 
     60 C         -80.9495   23.7553  -75.7335 C.2       2 UNK         0.5004 
     61 O         -80.5832   23.1611  -74.7160 O.2       2 UNK        -0.5226 
     62 CA        -82.1666   24.6914  -75.6666 C.3       2 UNK         0.0269 
     63 CB        -83.4702   23.8808  -75.5928 C.3       2 UNK        -0.1926 
     64 N         -82.1067   25.6101  -74.5264 N.am      2 UNK        -0.4687 
     65 C         -81.0934   26.4269  -74.2050 C.2       1 UNK         0.5165 
     66 O         -80.0427   26.5007  -74.8458 O.2       1 UNK        -0.5079 
     67 H67       -84.6618   29.5311  -72.9675 H         1 UNK         0.0900 
     68 H68       -85.4988   28.4881  -71.8167 H         1 UNK         0.0900 
     69 H69       -85.6913   28.2219  -73.5516 H         1 UNK         0.0900 
     70 H70       -82.5211   29.0377  -73.1628 H         1 UNK         0.2959 
     71 H71       -80.5498   28.1365  -73.1050 H         1 UNK         0.1079 
     72 H72       -79.9730   26.1402  -71.7191 H         1 UNK         0.0837 
     73 H73       -81.6600   25.7994  -71.4703 H         1 UNK         0.0837 
     74 H74       -79.1504   28.3239  -68.7706 H         1 UNK         0.0685 
     75 H75       -78.9918   26.6908  -69.3697 H         1 UNK         0.0685 
     76 H76       -79.4983   29.7641  -71.4988 H         1 UNK         0.1434 
     77 H77       -75.5896   29.5069  -73.2298 H         1 UNK         0.1329 
     78 H78       -76.7213   26.8060  -70.1078 H         1 UNK         0.1335 
     79 H79       -74.2594   27.4958  -72.7785 H         1 UNK         0.0680 
     80 H80       -74.7715   26.3411  -71.5933 H         1 UNK         0.0680 
     81 H81       -74.2670   30.2278  -71.2043 H         1 UNK         0.1032 
     82 H82       -73.0191   30.3409  -70.0243 H         1 UNK         0.1032 
     83 H83       -72.3478   31.2455  -72.2227 H         1 UNK         0.0461 
     84 H84       -70.2963   28.7104  -73.1770 H         1 UNK         0.3453 
     85 H85       -69.0242   29.0576  -72.0316 H         1 UNK         0.3453 
     86 H86       -73.0117   28.5932  -73.2394 H         1 UNK         0.2984 
     87 H87       -73.8270   29.2514  -75.8852 H         1 UNK         0.0554 
     88 H88       -72.3634   28.7454  -77.8454 H         1 UNK         0.0847 
     89 H89       -70.9478   29.2576  -76.9253 H         1 UNK         0.0847 
     90 H90       -72.2053   30.4166  -77.3359 H         1 UNK         0.0847 
     91 H91       -73.5028   27.0723  -75.5233 H         1 UNK         0.3141 
     92 H92       -70.6583   25.0340  -74.9971 H         1 UNK         0.0743 
     93 H93       -72.0794   23.9828  -73.3003 H         1 UNK         0.0784 
     94 H94       -71.5050   25.5253  -72.6882 H         1 UNK         0.0784 
     95 H95       -73.1589   25.3699  -73.2624 H         1 UNK         0.0784 
     96 H96       -73.5623   24.9300  -75.6557 H         1 UNK         0.3213 
     97 H97       -72.8059   23.5780  -78.9167 H         1 UNK         0.0855 
     98 H98       -73.0367   21.7671  -77.2059 H         1 UNK         0.0814 
     99 H99       -74.5375   22.0310  -78.0793 H         1 UNK         0.0814 
    100 H100      -74.3541   22.6459  -76.4398 H         1 UNK         0.0814 
    101 H101      -75.2748   24.4737  -77.8168 H         1 UNK         0.3105 
    102 H102      -75.3426   27.5515  -79.6851 H         1 UNK         0.0547 
    103 H103      -76.0367   25.6586  -81.1160 H         1 UNK         0.0837 
    104 H104      -76.8286   24.8726  -79.7594 H         1 UNK         0.0837 
    105 H105      -77.4350   26.4107  -80.3670 H         1 UNK         0.0837 
    106 H106      -76.7083   26.0454  -77.4874 H         1 UNK         0.3020 
    107 H107      -75.9868   28.3655  -75.2008 H         1 UNK         0.1245 
    108 H108      -78.6759   28.7315  -74.8968 H         1 UNK         0.0781 
    109 H109      -78.5546   29.1671  -76.5717 H         1 UNK         0.0781 
    110 H110      -79.0577   30.9816  -73.4966 H         1 UNK         0.0836 
    111 H111      -77.5965   31.8133  -73.0256 H         1 UNK         0.0836 
    112 H112      -78.1726   26.5058  -75.2155 H         1 UNK         0.3022 
    113 H113      -75.9934   23.7297  -74.4515 H         1 UNK         0.0747 
    114 H114      -77.6637   23.6011  -72.5942 H         1 UNK         0.0793 
    115 H115      -76.5055   24.8891  -72.3156 H         1 UNK         0.0793 
    116 H116      -78.1222   25.2791  -72.8827 H         1 UNK         0.0793 
    117 H117      -78.7672   23.6567  -74.7941 H         1 UNK         0.3047 
    118 H118      -78.9254   23.1637  -78.3217 H         1 UNK         0.0822 
    119 H119      -79.2266   21.2565  -75.9430 H         1 UNK         0.0807 
    120 H120      -78.2119   21.0118  -77.3535 H         1 UNK         0.0807 
    121 H121      -79.9586   21.0458  -77.5326 H         1 UNK         0.0807 
    122 H122      -80.7123   24.2349  -77.6740 H         1 UNK         0.2946 
    123 H123      -82.1913   25.3053  -76.5693 H         1 UNK         0.1144 
    124 H124      -83.5587   23.2023  -76.4424 H         1 UNK         0.0793 
    125 H125      -83.5158   23.2766  -74.6857 H         1 UNK         0.0793 
    126 H126      -84.3447   24.5318  -75.6057 H         1 UNK         0.0793 
    127 H127      -82.9160   25.6333  -73.9112 H         1 UNK         0.2896 
@<TRIPOS>BOND
     1    1    2 1    
     2    1   67 1    
     3    1   68 1    
     4    1   69 1    
     5    2    3 2    
     6    2    4 am   BACKBONE|DICT|INTERRES
     7    4    5 1    
     8    4   70 1    
     9    5    6 1    
    10    5   65 1    
    11    5   71 1    
    12    6    7 1    
    13    6   72 1    
    14    6   73 1    
    15    7    8 1    
    16    8    9 1    
    17    8   74 1    
    18    8   75 1    
    19    9   10 ar   
    20    9   14 ar   
    21   10   11 ar   
    22   10   76 1    
    23   11   12 ar   
    24   11   48 1    
    25   12   13 ar   
    26   12   77 1    
    27   13   14 ar   
    28   13   15 1    
    29   14   78 1    
    30   15   16 1    
    31   15   79 1    
    32   15   80 1    
    33   16   17 1    
    34   17   18 1    
    35   17   81 1    
    36   17   82 1    
    37   18   19 1    
    38   18   22 1    
    39   18   83 1    
    40   19   20 am   BACKBONE|DICT|INTERRES
    41   19   21 2    
    42   20   84 1    
    43   20   85 1    
    44   22   23 am   BACKBONE|DICT|INTERRES
    45   22   86 1    
    46   23   24 2    
    47   23   25 1    
    48   25   26 1    
    49   25   27 1    
    50   25   87 1    
    51   26   88 1    
    52   26   89 1    
    53   26   90 1    
    54   27   28 am   BACKBONE|DICT|INTERRES
    55   27   91 1    
    56   28   29 2    
    57   28   30 1    
    58   30   31 1    
    59   30   32 1    
    60   30   92 1    
    61   31   93 1    
    62   31   94 1    
    63   31   95 1    
    64   32   33 am   BACKBONE|DICT|INTERRES
    65   32   96 1    
    66   33   34 2    
    67   33   35 1    
    68   35   36 1    
    69   35   37 1    
    70   35   97 1    
    71   36   98 1    
    72   36   99 1    
    73   36  100 1    
    74   37   38 am   BACKBONE|DICT|INTERRES
    75   37  101 1    
    76   38   39 2    
    77   38   40 1    
    78   40   41 1    
    79   40   42 1    
    80   40  102 1    
    81   41  103 1    
    82   41  104 1    
    83   41  105 1    
    84   42   43 am   BACKBONE|DICT|INTERRES
    85   42  106 1    
    86   43   44 2    
    87   43   45 1    
    88   45   46 1    
    89   45   49 1    
    90   45  107 1    
    91   46   47 1    
    92   46  108 1    
    93   46  109 1    
    94   47   48 1    
    95   48  110 1    
    96   48  111 1    
    97   49   50 am   BACKBONE|DICT|INTERRES
    98   49  112 1    
    99   50   51 2    
   100   50   52 1    
   101   52   53 1    
   102   52   54 1    
   103   52  113 1    
   104   53  114 1    
   105   53  115 1    
   106   53  116 1    
   107   54   55 am   BACKBONE|DICT|INTERRES
   108   54  117 1    
   109   55   56 2    
   110   55   57 1    
   111   57   58 1    
   112   57   59 1    
   113   57  118 1    
   114   58  119 1    
   115   58  120 1    
   116   58  121 1    
   117   59   60 am   BACKBONE|DICT|INTERRES
   118   59  122 1    
   119   60   61 2    
   120   60   62 1    
   121   62   63 1    
   122   62   64 1    
   123   62  123 1    
   124   63  124 1    
   125   63  125 1    
   126   63  126 1    
   127   64   65 am   BACKBONE|DICT|INTERRES
   128   64  127 1    
   129   65   66 2    
@<TRIPOS>SUBSTRUCTURE
     1 UNK         1 GROUP             0       ****    0 ROOT    
