@<TRIPOS>MOLECULE
3R135
127   129    1
SMALL
USER_CHARGES


@<TRIPOS>ATOM
      1 CA        -79.4315   30.3666  -75.8602 C.3       0 UNK        -0.1998 
      2 C         -79.6123   29.3264  -74.7656 C.2       0 UNK         0.4909 
      3 O         -78.7614   28.4532  -74.6079 O.2       0 UNK        -0.5240 
      4 N         -80.7155   29.4070  -74.0097 N.am      1 UNK        -0.4739 
      5 CA        -81.0687   28.4735  -72.9354 C.3       1 UNK         0.0864 
      6 C6        -81.9970   29.1525  -71.8943 C.3       11 UNK        -0.0881 
      7 S7        -82.1427   28.1987  -70.3431 S.3       11 UNK        -0.2682 
      8 C8        -80.9480   29.0442  -69.2596 C.3       11 UNK         0.0289 
      9 C9        -79.5140   28.8657  -69.7376 C.ar      11 UNK        -0.0687 
     10 C10       -78.9048   27.6079  -69.6773 C.ar      11 UNK        -0.0823 
     11 C11       -77.5884   27.4367  -70.1143 C.ar      11 UNK        -0.0830 
     12 C12       -76.8692   28.5430  -70.5758 C.ar      11 UNK        -0.1021 
     13 C13       -77.4749   29.7983  -70.6712 C.ar      11 UNK        -0.0753 
     14 C14       -78.7978   29.9545  -70.2460 C.ar      11 UNK        -0.0933 
     15 C15       -76.7070   30.9836  -71.2406 C.3       11 UNK         0.0166 
     16 S16       -76.8754   31.0817  -73.0530 S.3       11 UNK        -0.2615 
     17 C17       -75.5917   29.9064  -73.6302 C.3       11 UNK        -0.0865 
     18 CA        -74.4501   30.5079  -74.5003 C.3       10 UNK         0.0862 
     19 C         -73.8738   31.8378  -73.9210 C.2       10 UNK         0.5551 
     20 N         -72.9134   31.7799  -73.0046 N.am      10 UNK        -0.7319 
     21 O         -74.2814   32.9243  -74.3245 O.2       10 UNK        -0.5018 
     22 N         -73.4023   29.4985  -74.7429 N.am      10 UNK        -0.4509 
     23 C         -72.3699   29.6673  -75.5809 C.2       10 UNK         0.4899 
     24 O         -72.2955   30.5783  -76.4058 O.2       10 UNK        -0.4839 
     25 CA        -71.1861   28.7054  -75.4259 C.3       9 UNK         0.0222 
     26 CB        -70.3746   29.0859  -74.1671 C.3       9 UNK        -0.1966 
     27 N         -71.5911   27.2961  -75.3991 N.am      9 UNK        -0.4218 
     28 C         -70.7317   26.2694  -75.4950 C.2       9 UNK         0.5020 
     29 O         -69.5091   26.4000  -75.5803 O.2       9 UNK        -0.5274 
     30 CA        -71.3214   24.8502  -75.5217 C.3       8 UNK         0.0270 
     31 CB        -71.7854   24.4139  -74.1220 C.3       8 UNK        -0.1976 
     32 N         -72.4101   24.7102  -76.4895 N.am      8 UNK        -0.4313 
     33 C         -72.2567   24.7970  -77.8196 C.2       8 UNK         0.5041 
     34 O         -71.1679   24.9395  -78.3783 O.2       8 UNK        -0.5577 
     35 CA        -73.5288   24.7188  -78.6795 C.3       7 UNK         0.0284 
     36 CB        -73.9038   23.2544  -78.9572 C.3       7 UNK        -0.1958 
     37 N         -74.6638   25.4221  -78.0774 N.am      7 UNK        -0.4454 
     38 C         -74.7235   26.7511  -77.9018 C.2       7 UNK         0.5089 
     39 O         -73.8651   27.5364  -78.3040 O.2       7 UNK        -0.5125 
     40 CA        -75.9250   27.2956  -77.1123 C.3       6 UNK         0.0408 
     41 CB        -77.1515   27.4578  -78.0224 C.3       6 UNK        -0.1791 
     42 N         -76.2780   26.4558  -75.9683 N.am      6 UNK        -0.4762 
     43 C         -75.4882   26.2214  -74.9116 C.2       6 UNK         0.5007 
     44 O         -74.3645   26.7068  -74.7691 O.2       6 UNK        -0.5032 
     45 CA        -76.0357   25.2547  -73.8466 C.3       5 UNK         0.0783 
     46 C46       -77.0718   25.9768  -72.9572 C.3       11 UNK        -0.0857 
     47 S47       -77.5631   25.0157  -71.4864 S.3       11 UNK        -0.2512 
     48 C48       -76.9481   26.0540  -70.1155 C.3       11 UNK         0.0225 
     49 N         -76.5774   24.0399  -74.4625 N.am      5 UNK        -0.4615 
     50 C         -75.8524   23.1380  -75.1372 C.2       4 UNK         0.5053 
     51 O         -74.6347   23.2169  -75.2919 O.2       4 UNK        -0.5105 
     52 CA        -76.6189   21.9678  -75.7751 C.3       4 UNK         0.0263 
     53 CB        -76.9009   20.8736  -74.7333 C.3       4 UNK        -0.1981 
     54 N         -77.8749   22.3870  -76.4017 N.am      4 UNK        -0.4224 
     55 C         -77.9565   23.1867  -77.4753 C.2       3 UNK         0.4895 
     56 O         -76.9802   23.6314  -78.0775 O.2       3 UNK        -0.5091 
     57 CA        -79.3693   23.6056  -77.9195 C.3       3 UNK         0.0250 
     58 CB        -80.0108   22.5146  -78.7916 C.3       3 UNK        -0.1996 
     59 N         -80.2633   23.9399  -76.8030 N.am      3 UNK        -0.4254 
     60 C         -80.0064   24.8875  -75.8913 C.2       2 UNK         0.5004 
     61 O         -78.9704   25.5552  -75.8786 O.2       2 UNK        -0.5226 
     62 CA        -81.0504   25.0971  -74.7902 C.3       2 UNK         0.0269 
     63 CB        -80.9976   23.9602  -73.7533 C.3       2 UNK        -0.1926 
     64 N         -80.7644   26.3665  -74.1316 N.am      2 UNK        -0.4687 
     65 C         -81.6450   27.1681  -73.5301 C.2       1 UNK         0.5165 
     66 O         -82.8531   26.9280  -73.4729 O.2       1 UNK        -0.5079 
     67 H67       -78.4463   30.8253  -75.7796 H         1 UNK         0.0900 
     68 H68       -80.1791   31.1570  -75.7989 H         1 UNK         0.0900 
     69 H69       -79.5089   29.8962  -76.8398 H         1 UNK         0.0900 
     70 H70       -81.3955   30.1282  -74.2036 H         1 UNK         0.2959 
     71 H71       -80.1447   28.2026  -72.4182 H         1 UNK         0.1079 
     72 H72       -81.6174   30.1461  -71.6508 H         1 UNK         0.0837 
     73 H73       -82.9956   29.3127  -72.3049 H         1 UNK         0.0837 
     74 H74       -81.0396   28.6375  -68.2515 H         1 UNK         0.0685 
     75 H75       -81.2097   30.1010  -69.1866 H         1 UNK         0.0685 
     76 H76       -79.4644   26.7575  -69.3118 H         1 UNK         0.1434 
     77 H77       -75.8446   28.4153  -70.8930 H         1 UNK         0.1329 
     78 H78       -79.2699   30.9250  -70.3150 H         1 UNK         0.1335 
     79 H79       -77.0863   31.9101  -70.8070 H         1 UNK         0.0680 
     80 H80       -75.6531   30.9314  -70.9630 H         1 UNK         0.0680 
     81 H81       -75.1544   29.4095  -72.7660 H         1 UNK         0.1032 
     82 H82       -76.0990   29.1213  -74.1928 H         1 UNK         0.1032 
     83 H83       -74.8849   30.7539  -75.4711 H         1 UNK         0.0461 
     84 H84       -72.5676   30.8941  -72.6746 H         1 UNK         0.3453 
     85 H85       -72.5325   32.6375  -72.6375 H         1 UNK         0.3453 
     86 H86       -73.4131   28.6874  -74.1409 H         1 UNK         0.2984 
     87 H87       -70.5476   28.8481  -76.3005 H         1 UNK         0.0554 
     88 H88       -69.4078   28.5843  -74.1394 H         1 UNK         0.0847 
     89 H89       -70.9073   28.8307  -73.2506 H         1 UNK         0.0847 
     90 H90       -70.1710   30.1576  -74.1394 H         1 UNK         0.0847 
     91 H91       -72.5895   27.0998  -75.3490 H         1 UNK         0.3141 
     92 H92       -70.5238   24.1704  -75.8292 H         1 UNK         0.0743 
     93 H93       -70.9721   24.4961  -73.3997 H         1 UNK         0.0784 
     94 H94       -72.1139   23.3744  -74.1210 H         1 UNK         0.0784 
     95 H95       -72.6093   25.0241  -73.7539 H         1 UNK         0.0784 
     96 H96       -73.3320   24.5075  -76.1144 H         1 UNK         0.3213 
     97 H97       -73.3099   25.1991  -79.6357 H         1 UNK         0.0855 
     98 H98       -74.1759   22.7266  -78.0427 H         1 UNK         0.0814 
     99 H99       -73.0698   22.7164  -79.4098 H         1 UNK         0.0814 
    100 H100      -74.7453   23.1852  -79.6467 H         1 UNK         0.0814 
    101 H101      -75.4518   24.8518  -77.7823 H         1 UNK         0.3105 
    102 H102      -75.6537   28.2804  -76.7262 H         1 UNK         0.0547 
    103 H103      -77.9887   27.8954  -77.4784 H         1 UNK         0.0837 
    104 H104      -76.9301   28.1131  -78.8656 H         1 UNK         0.0837 
    105 H105      -77.4825   26.5003  -78.4263 H         1 UNK         0.0837 
    106 H106      -77.2154   26.0539  -75.9717 H         1 UNK         0.3020 
    107 H107      -75.1908   24.9608  -73.2198 H         1 UNK         0.1245 
    108 H108      -77.9757   26.1966  -73.5230 H         1 UNK         0.0781 
    109 H109      -76.6816   26.9451  -72.6501 H         1 UNK         0.0781 
    110 H110      -77.1611   25.5543  -69.1694 H         1 UNK         0.0836 
    111 H111      -75.8616   26.1292  -70.1821 H         1 UNK         0.0836 
    112 H112      -77.5784   23.9274  -74.4176 H         1 UNK         0.3022 
    113 H113      -75.9824   21.5413  -76.5535 H         1 UNK         0.0747 
    114 H114      -77.3694   20.0018  -75.1905 H         1 UNK         0.0793 
    115 H115      -75.9753   20.5340  -74.2661 H         1 UNK         0.0793 
    116 H116      -77.5561   21.2292  -73.9370 H         1 UNK         0.0793 
    117 H117      -78.7321   22.0727  -75.9714 H         1 UNK         0.3047 
    118 H118      -79.2610   24.5060  -78.5281 H         1 UNK         0.0822 
    119 H119      -80.9647   22.8452  -79.2031 H         1 UNK         0.0807 
    120 H120      -80.1869   21.5963  -78.2301 H         1 UNK         0.0807 
    121 H121      -79.3672   22.2621  -79.6357 H         1 UNK         0.0807 
    122 H122      -81.1306   23.4252  -76.7457 H         1 UNK         0.2946 
    123 H123      -82.0387   25.1385  -75.2539 H         1 UNK         0.1144 
    124 H124      -81.7365   24.1095  -72.9657 H         1 UNK         0.0793 
    125 H125      -80.0173   23.8933  -73.2794 H         1 UNK         0.0793 
    126 H126      -81.2084   22.9936  -74.2119 H         1 UNK         0.0793 
    127 H127      -79.8190   26.7150  -74.2788 H         1 UNK         0.2896 
@<TRIPOS>BOND
     1    1    2 1    
     2    1   67 1    
     3    1   68 1    
     4    1   69 1    
     5    2    3 2    
     6    2    4 am   BACKBONE|DICT|INTERRES
     7    4    5 1    
     8    4   70 1    
     9    5    6 1    
    10    5   65 1    
    11    5   71 1    
    12    6    7 1    
    13    6   72 1    
    14    6   73 1    
    15    7    8 1    
    16    8    9 1    
    17    8   74 1    
    18    8   75 1    
    19    9   10 ar   
    20    9   14 ar   
    21   10   11 ar   
    22   10   76 1    
    23   11   12 ar   
    24   11   48 1    
    25   12   13 ar   
    26   12   77 1    
    27   13   14 ar   
    28   13   15 1    
    29   14   78 1    
    30   15   16 1    
    31   15   79 1    
    32   15   80 1    
    33   16   17 1    
    34   17   18 1    
    35   17   81 1    
    36   17   82 1    
    37   18   19 1    
    38   18   22 1    
    39   18   83 1    
    40   19   20 am   BACKBONE|DICT|INTERRES
    41   19   21 2    
    42   20   84 1    
    43   20   85 1    
    44   22   23 am   BACKBONE|DICT|INTERRES
    45   22   86 1    
    46   23   24 2    
    47   23   25 1    
    48   25   26 1    
    49   25   27 1    
    50   25   87 1    
    51   26   88 1    
    52   26   89 1    
    53   26   90 1    
    54   27   28 am   BACKBONE|DICT|INTERRES
    55   27   91 1    
    56   28   29 2    
    57   28   30 1    
    58   30   31 1    
    59   30   32 1    
    60   30   92 1    
    61   31   93 1    
    62   31   94 1    
    63   31   95 1    
    64   32   33 am   BACKBONE|DICT|INTERRES
    65   32   96 1    
    66   33   34 2    
    67   33   35 1    
    68   35   36 1    
    69   35   37 1    
    70   35   97 1    
    71   36   98 1    
    72   36   99 1    
    73   36  100 1    
    74   37   38 am   BACKBONE|DICT|INTERRES
    75   37  101 1    
    76   38   39 2    
    77   38   40 1    
    78   40   41 1    
    79   40   42 1    
    80   40  102 1    
    81   41  103 1    
    82   41  104 1    
    83   41  105 1    
    84   42   43 am   BACKBONE|DICT|INTERRES
    85   42  106 1    
    86   43   44 2    
    87   43   45 1    
    88   45   46 1    
    89   45   49 1    
    90   45  107 1    
    91   46   47 1    
    92   46  108 1    
    93   46  109 1    
    94   47   48 1    
    95   48  110 1    
    96   48  111 1    
    97   49   50 am   BACKBONE|DICT|INTERRES
    98   49  112 1    
    99   50   51 2    
   100   50   52 1    
   101   52   53 1    
   102   52   54 1    
   103   52  113 1    
   104   53  114 1    
   105   53  115 1    
   106   53  116 1    
   107   54   55 am   BACKBONE|DICT|INTERRES
   108   54  117 1    
   109   55   56 2    
   110   55   57 1    
   111   57   58 1    
   112   57   59 1    
   113   57  118 1    
   114   58  119 1    
   115   58  120 1    
   116   58  121 1    
   117   59   60 am   BACKBONE|DICT|INTERRES
   118   59  122 1    
   119   60   61 2    
   120   60   62 1    
   121   62   63 1    
   122   62   64 1    
   123   62  123 1    
   124   63  124 1    
   125   63  125 1    
   126   63  126 1    
   127   64   65 am   BACKBONE|DICT|INTERRES
   128   64  127 1    
   129   65   66 2    
@<TRIPOS>SUBSTRUCTURE
     1 UNK         1 GROUP             0       ****    0 ROOT    
