@<TRIPOS>MOLECULE
3R135
127   129    1
SMALL
USER_CHARGES


@<TRIPOS>ATOM
      1 CA        -77.9509   30.3989  -75.9080 C.3       0 UNK        -0.1998 
      2 C         -79.3412   29.9382  -75.4929 C.2       0 UNK         0.4909 
      3 O         -80.3235   30.3464  -76.1109 O.2       0 UNK        -0.5240 
      4 N         -79.4190   29.1114  -74.4412 N.am      1 UNK        -0.4739 
      5 CA        -80.6392   28.5814  -73.8217 C.3       1 UNK         0.0864 
      6 C6        -81.5799   29.6972  -73.2749 C.3       11 UNK        -0.0881 
      7 S7        -82.2804   29.2619  -71.6475 S.3       11 UNK        -0.2682 
      8 C8        -81.0579   30.0116  -70.5155 C.3       11 UNK         0.0289 
      9 C9        -79.6608   29.4449  -70.7344 C.ar      11 UNK        -0.0687 
     10 C10       -79.3918   28.1095  -70.4156 C.ar      11 UNK        -0.0823 
     11 C11       -78.1382   27.5525  -70.6848 C.ar      11 UNK        -0.0830 
     12 C12       -77.1433   28.3532  -71.2508 C.ar      11 UNK        -0.1021 
     13 C13       -77.3908   29.6928  -71.5561 C.ar      11 UNK        -0.0753 
     14 C14       -78.6518   30.2373  -71.2947 C.ar      11 UNK        -0.0933 
     15 C15       -76.2812   30.5308  -72.1694 C.3       11 UNK         0.0166 
     16 S16       -74.9976   30.8724  -70.9305 S.3       11 UNK        -0.2615 
     17 C17       -73.5437   31.2153  -71.9823 C.3       11 UNK        -0.0865 
     18 CA        -72.7871   29.9800  -72.5690 C.3       10 UNK         0.0862 
     19 C         -72.6622   28.7522  -71.6221 C.2       10 UNK         0.5551 
     20 N         -73.1268   27.5645  -71.9960 N.am      10 UNK        -0.7319 
     21 O         -72.0944   28.8718  -70.5392 O.2       10 UNK        -0.5018 
     22 N         -73.2141   29.6401  -73.9352 N.am      10 UNK        -0.4509 
     23 C         -72.8290   30.3112  -75.0267 C.2       10 UNK         0.4899 
     24 O         -72.1914   31.3657  -74.9952 O.2       10 UNK        -0.4839 
     25 CA        -73.1977   29.6722  -76.3766 C.3       9 UNK         0.0222 
     26 CB        -72.6372   30.4448  -77.5885 C.3       9 UNK        -0.1966 
     27 N         -72.8171   28.2566  -76.4491 N.am      9 UNK        -0.4218 
     28 C         -71.6004   27.7099  -76.2905 C.2       9 UNK         0.5020 
     29 O         -70.5770   28.3559  -76.0618 O.2       9 UNK        -0.5274 
     30 CA        -71.4981   26.1735  -76.3890 C.3       8 UNK         0.0270 
     31 CB        -71.3416   25.5643  -74.9860 C.3       8 UNK        -0.1976 
     32 N         -72.6456   25.5483  -77.0534 N.am      8 UNK        -0.4313 
     33 C         -72.9142   25.6287  -78.3643 C.2       8 UNK         0.5041 
     34 O         -72.1558   26.1363  -79.1910 O.2       8 UNK        -0.5577 
     35 CA        -74.2921   25.1100  -78.8158 C.3       7 UNK         0.0284 
     36 CB        -74.2603   23.5930  -79.0592 C.3       7 UNK        -0.1958 
     37 N         -75.3575   25.4466  -77.8626 N.am      7 UNK        -0.4454 
     38 C         -75.7318   26.6999  -77.5650 C.2       7 UNK         0.5089 
     39 O         -75.2655   27.6992  -78.1079 O.2       7 UNK        -0.5125 
     40 CA        -76.7676   26.8854  -76.4508 C.3       6 UNK         0.0408 
     41 CB        -78.1802   26.7460  -77.0304 C.3       6 UNK        -0.1791 
     42 N         -76.5593   25.9547  -75.3391 N.am      6 UNK        -0.4762 
     43 C         -75.6026   26.0933  -74.4047 C.2       6 UNK         0.5007 
     44 O         -74.8902   27.0966  -74.2925 O.2       6 UNK        -0.5032 
     45 CA        -75.3294   24.8804  -73.4871 C.3       5 UNK         0.0783 
     46 C46       -75.8595   25.0383  -72.0423 C.3       11 UNK        -0.0857 
     47 S47       -77.6748   25.0844  -71.8685 S.3       11 UNK        -0.2512 
     48 C48       -77.8634   26.0909  -70.3610 C.3       11 UNK         0.0225 
     49 N         -75.7199   23.6074  -74.1017 N.am      5 UNK        -0.4615 
     50 C         -75.0056   23.0219  -75.0722 C.2       4 UNK         0.5053 
     51 O         -73.9792   23.5116  -75.5428 O.2       4 UNK        -0.5105 
     52 CA        -75.5188   21.6870  -75.6330 C.3       4 UNK         0.0263 
     53 CB        -75.0087   20.5167  -74.7777 C.3       4 UNK        -0.1981 
     54 N         -76.9754   21.6027  -75.7579 N.am      4 UNK        -0.4224 
     55 C         -77.7406   22.4048  -76.5116 C.2       3 UNK         0.4895 
     56 O         -77.2984   23.3663  -77.1440 O.2       3 UNK        -0.5091 
     57 CA        -79.2459   22.0647  -76.5981 C.3       3 UNK         0.0250 
     58 CB        -79.7017   20.9683  -75.6063 C.3       3 UNK        -0.1996 
     59 N         -80.1222   23.2374  -76.4754 N.am      3 UNK        -0.4254 
     60 C         -80.1340   24.1236  -75.4705 C.2       2 UNK         0.5004 
     61 O         -79.3288   24.1218  -74.5373 O.2       2 UNK        -0.5226 
     62 CA        -81.2525   25.1733  -75.4967 C.3       2 UNK         0.0269 
     63 CB        -82.5773   24.5760  -74.9849 C.3       2 UNK        -0.1926 
     64 N         -80.8510   26.2967  -74.6546 N.am      2 UNK        -0.4687 
     65 C         -81.3344   27.5426  -74.7260 C.2       1 UNK         0.5165 
     66 O         -82.2484   27.8739  -75.4839 O.2       1 UNK        -0.5079 
     67 H67       -77.7063   30.0157  -76.8984 H         1 UNK         0.0900 
     68 H68       -77.9152   31.4873  -75.9481 H         1 UNK         0.0900 
     69 H69       -77.1833   30.0660  -75.2102 H         1 UNK         0.0900 
     70 H70       -78.5642   28.8200  -73.9879 H         1 UNK         0.2959 
     71 H71       -80.2680   28.0124  -72.9708 H         1 UNK         0.1079 
     72 H72       -82.3914   29.9282  -73.9669 H         1 UNK         0.0837 
     73 H73       -81.0361   30.6360  -73.1594 H         1 UNK         0.0837 
     74 H74       -81.3656   29.8247  -69.4857 H         1 UNK         0.0685 
     75 H75       -81.0641   31.0949  -70.6462 H         1 UNK         0.0685 
     76 H76       -80.1744   27.4977  -69.9873 H         1 UNK         0.1434 
     77 H77       -76.1644   27.9462  -71.4533 H         1 UNK         0.1329 
     78 H78       -78.8523   31.2706  -71.5427 H         1 UNK         0.1335 
     79 H79       -75.8501   29.9862  -73.0101 H         1 UNK         0.0680 
     80 H80       -76.6660   31.4713  -72.5666 H         1 UNK         0.0680 
     81 H81       -72.8469   31.7754  -71.3567 H         1 UNK         0.1032 
     82 H82       -73.8303   31.9127  -72.7706 H         1 UNK         0.1032 
     83 H83       -71.7460   30.2943  -72.6725 H         1 UNK         0.0461 
     84 H84       -72.9983   26.7892  -71.3667 H         1 UNK         0.3453 
     85 H85       -73.6328   27.4366  -72.8618 H         1 UNK         0.3453 
     86 H86       -73.7429   28.7829  -74.0481 H         1 UNK         0.2984 
     87 H87       -74.2863   29.7024  -76.4407 H         1 UNK         0.0554 
     88 H88       -72.9928   31.4758  -77.5941 H         1 UNK         0.0847 
     89 H89       -72.9536   29.9881  -78.5265 H         1 UNK         0.0847 
     90 H90       -71.5472   30.4755  -77.5810 H         1 UNK         0.0847 
     91 H91       -73.5803   27.6285  -76.6614 H         1 UNK         0.3141 
     92 H92       -70.6019   25.9399  -76.9675 H         1 UNK         0.0743 
     93 H93       -70.4586   25.9613  -74.4835 H         1 UNK         0.0784 
     94 H94       -72.2014   25.7860  -74.3540 H         1 UNK         0.0784 
     95 H95       -71.2290   24.4808  -75.0323 H         1 UNK         0.0784 
     96 H96       -73.2745   25.0026  -76.4675 H         1 UNK         0.3213 
     97 H97       -74.5347   25.5986  -79.7621 H         1 UNK         0.0855 
     98 H98       -73.9617   23.0441  -78.1670 H         1 UNK         0.0814 
     99 H99       -73.5464   23.3431  -79.8451 H         1 UNK         0.0814 
    100 H100      -75.2347   23.2190  -79.3741 H         1 UNK         0.0814 
    101 H101      -75.8559   24.6745  -77.4284 H         1 UNK         0.3105 
    102 H102      -76.6578   27.8997  -76.0669 H         1 UNK         0.0547 
    103 H103      -78.3752   25.7422  -77.4062 H         1 UNK         0.0837 
    104 H104      -78.3319   27.4376  -77.8603 H         1 UNK         0.0837 
    105 H105      -78.9296   26.9814  -76.2835 H         1 UNK         0.0837 
    106 H106      -77.0943   25.0949  -75.3536 H         1 UNK         0.3020 
    107 H107      -74.2418   24.8518  -73.3863 H         1 UNK         0.1245 
    108 H108      -75.4196   25.9220  -71.5838 H         1 UNK         0.0781 
    109 H109      -75.5004   24.2033  -71.4386 H         1 UNK         0.0781 
    110 H110      -76.9753   26.0101  -69.7327 H         1 UNK         0.0836 
    111 H111      -78.6826   25.6728  -69.7739 H         1 UNK         0.0836 
    112 H112      -76.5806   23.1868  -73.7795 H         1 UNK         0.3022 
    113 H113      -75.1035   21.5756  -76.6362 H         1 UNK         0.0747 
    114 H114      -75.2694   19.5559  -75.2221 H         1 UNK         0.0793 
    115 H115      -73.9216   20.5442  -74.6876 H         1 UNK         0.0793 
    116 H116      -75.4200   20.5435  -73.7677 H         1 UNK         0.0793 
    117 H117      -77.4273   20.8469  -75.2641 H         1 UNK         0.3047 
    118 H118      -79.3993   21.6781  -77.6067 H         1 UNK         0.0822 
    119 H119      -80.7657   20.7591  -75.7194 H         1 UNK         0.0807 
    120 H120      -79.5364   21.2620  -74.5685 H         1 UNK         0.0807 
    121 H121      -79.1801   20.0260  -75.7792 H         1 UNK         0.0807 
    122 H122      -80.8003   23.3463  -77.2167 H         1 UNK         0.2946 
    123 H123      -81.3758   25.5241  -76.5240 H         1 UNK         0.1144 
    124 H124      -83.3856   25.3065  -75.0208 H         1 UNK         0.0793 
    125 H125      -82.4874   24.2273  -73.9553 H         1 UNK         0.0793 
    126 H126      -82.8870   23.7248  -75.5924 H         1 UNK         0.0793 
    127 H127      -80.0741   26.0792  -74.0400 H         1 UNK         0.2896 
@<TRIPOS>BOND
     1    1    2 1    
     2    1   67 1    
     3    1   68 1    
     4    1   69 1    
     5    2    3 2    
     6    2    4 am   BACKBONE|DICT|INTERRES
     7    4    5 1    
     8    4   70 1    
     9    5    6 1    
    10    5   65 1    
    11    5   71 1    
    12    6    7 1    
    13    6   72 1    
    14    6   73 1    
    15    7    8 1    
    16    8    9 1    
    17    8   74 1    
    18    8   75 1    
    19    9   10 ar   
    20    9   14 ar   
    21   10   11 ar   
    22   10   76 1    
    23   11   12 ar   
    24   11   48 1    
    25   12   13 ar   
    26   12   77 1    
    27   13   14 ar   
    28   13   15 1    
    29   14   78 1    
    30   15   16 1    
    31   15   79 1    
    32   15   80 1    
    33   16   17 1    
    34   17   18 1    
    35   17   81 1    
    36   17   82 1    
    37   18   19 1    
    38   18   22 1    
    39   18   83 1    
    40   19   20 am   BACKBONE|DICT|INTERRES
    41   19   21 2    
    42   20   84 1    
    43   20   85 1    
    44   22   23 am   BACKBONE|DICT|INTERRES
    45   22   86 1    
    46   23   24 2    
    47   23   25 1    
    48   25   26 1    
    49   25   27 1    
    50   25   87 1    
    51   26   88 1    
    52   26   89 1    
    53   26   90 1    
    54   27   28 am   BACKBONE|DICT|INTERRES
    55   27   91 1    
    56   28   29 2    
    57   28   30 1    
    58   30   31 1    
    59   30   32 1    
    60   30   92 1    
    61   31   93 1    
    62   31   94 1    
    63   31   95 1    
    64   32   33 am   BACKBONE|DICT|INTERRES
    65   32   96 1    
    66   33   34 2    
    67   33   35 1    
    68   35   36 1    
    69   35   37 1    
    70   35   97 1    
    71   36   98 1    
    72   36   99 1    
    73   36  100 1    
    74   37   38 am   BACKBONE|DICT|INTERRES
    75   37  101 1    
    76   38   39 2    
    77   38   40 1    
    78   40   41 1    
    79   40   42 1    
    80   40  102 1    
    81   41  103 1    
    82   41  104 1    
    83   41  105 1    
    84   42   43 am   BACKBONE|DICT|INTERRES
    85   42  106 1    
    86   43   44 2    
    87   43   45 1    
    88   45   46 1    
    89   45   49 1    
    90   45  107 1    
    91   46   47 1    
    92   46  108 1    
    93   46  109 1    
    94   47   48 1    
    95   48  110 1    
    96   48  111 1    
    97   49   50 am   BACKBONE|DICT|INTERRES
    98   49  112 1    
    99   50   51 2    
   100   50   52 1    
   101   52   53 1    
   102   52   54 1    
   103   52  113 1    
   104   53  114 1    
   105   53  115 1    
   106   53  116 1    
   107   54   55 am   BACKBONE|DICT|INTERRES
   108   54  117 1    
   109   55   56 2    
   110   55   57 1    
   111   57   58 1    
   112   57   59 1    
   113   57  118 1    
   114   58  119 1    
   115   58  120 1    
   116   58  121 1    
   117   59   60 am   BACKBONE|DICT|INTERRES
   118   59  122 1    
   119   60   61 2    
   120   60   62 1    
   121   62   63 1    
   122   62   64 1    
   123   62  123 1    
   124   63  124 1    
   125   63  125 1    
   126   63  126 1    
   127   64   65 am   BACKBONE|DICT|INTERRES
   128   64  127 1    
   129   65   66 2    
@<TRIPOS>SUBSTRUCTURE
     1 UNK         1 GROUP             0       ****    0 ROOT    
