@<TRIPOS>MOLECULE
3R135
127   129    1
SMALL
USER_CHARGES


@<TRIPOS>ATOM
      1 CA        -84.4771   27.3980  -70.7145 C.3       0 UNK        -0.1998 
      2 C         -84.1235   28.2584  -71.9181 C.2       0 UNK         0.4909 
      3 O         -84.9960   28.5631  -72.7315 O.2       0 UNK        -0.5240 
      4 N         -82.8484   28.6532  -72.0357 N.am      1 UNK        -0.4739 
      5 CA        -82.3254   29.5007  -73.1171 C.3       1 UNK         0.0864 
      6 C6        -80.9004   30.0409  -72.8183 C.3       11 UNK        -0.0881 
      7 S7        -80.6728   30.7811  -71.1616 S.3       11 UNK        -0.2682 
      8 C8        -80.1185   29.3803  -70.1227 C.3       11 UNK         0.0289 
      9 C9        -78.9843   28.5751  -70.7452 C.ar      11 UNK        -0.0687 
     10 C10       -79.2452   27.3333  -71.3337 C.ar      11 UNK        -0.0823 
     11 C11       -78.2179   26.6010  -71.9339 C.ar      11 UNK        -0.0830 
     12 C12       -76.9130   27.1077  -71.9164 C.ar      11 UNK        -0.1021 
     13 C13       -76.6321   28.3368  -71.3072 C.ar      11 UNK        -0.0753 
     14 C14       -77.6765   29.0681  -70.7312 C.ar      11 UNK        -0.0933 
     15 C15       -75.2023   28.8657  -71.2206 C.3       11 UNK         0.0166 
     16 S16       -74.3115   28.8669  -72.8101 S.3       11 UNK        -0.2615 
     17 C17       -75.3425   29.9992  -73.8058 C.3       11 UNK        -0.0865 
     18 CA        -74.7415   30.3236  -75.2018 C.3       10 UNK         0.0862 
     19 C         -73.6520   31.4373  -75.1364 C.2       10 UNK         0.5551 
     20 N         -72.4590   31.2567  -75.6902 N.am      10 UNK        -0.7319 
     21 O         -73.9037   32.5050  -74.5830 O.2       10 UNK        -0.5018 
     22 N         -74.3438   29.0958  -75.9073 N.am      10 UNK        -0.4509 
     23 C         -74.2213   28.9476  -77.2303 C.2       10 UNK         0.4899 
     24 O         -74.5399   29.8097  -78.0505 O.2       10 UNK        -0.4839 
     25 CA        -73.6054   27.6114  -77.6945 C.3       9 UNK         0.0222 
     26 CB        -73.2988   27.5816  -79.2061 C.3       9 UNK        -0.1966 
     27 N         -72.4138   27.2397  -76.9165 N.am      9 UNK        -0.4218 
     28 C         -71.3031   27.9798  -76.7436 C.2       9 UNK         0.5020 
     29 O         -71.1403   29.0921  -77.2466 O.2       9 UNK        -0.5274 
     30 CA        -70.1938   27.4324  -75.8245 C.3       8 UNK         0.0270 
     31 CB        -70.2079   28.1831  -74.4814 C.3       8 UNK        -0.1976 
     32 N         -70.2923   25.9977  -75.5613 N.am      8 UNK        -0.4313 
     33 C         -70.0771   25.0232  -76.4552 C.2       8 UNK         0.5041 
     34 O         -69.6559   25.2194  -77.5955 O.2       8 UNK        -0.5577 
     35 CA        -70.4175   23.5873  -76.0086 C.3       7 UNK         0.0284 
     36 CB        -69.1364   22.8213  -75.6397 C.3       7 UNK        -0.1958 
     37 N         -71.3653   23.5143  -74.8864 N.am      7 UNK        -0.4454 
     38 C         -72.6232   23.9755  -74.9105 C.2       7 UNK         0.5089 
     39 O         -73.1263   24.5470  -75.8811 O.2       7 UNK        -0.5125 
     40 CA        -73.4160   23.8545  -73.6054 C.3       6 UNK         0.0408 
     41 CB        -73.3055   25.1593  -72.8011 C.3       6 UNK        -0.1791 
     42 N         -74.8192   23.6247  -73.9239 N.am      6 UNK        -0.4762 
     43 C         -75.4694   22.4618  -73.7793 C.2       6 UNK         0.5007 
     44 O         -74.9635   21.4456  -73.3001 O.2       6 UNK        -0.5032 
     45 CA        -76.9398   22.4237  -74.2576 C.3       5 UNK         0.0783 
     46 C46       -77.9637   22.5557  -73.0918 C.3       11 UNK        -0.0857 
     47 S47       -77.6474   23.8861  -71.8726 S.3       11 UNK        -0.2512 
     48 C48       -78.5267   25.2815  -72.6277 C.3       11 UNK         0.0225 
     49 N         -77.2040   23.3816  -75.3395 N.am      5 UNK        -0.4615 
     50 C         -76.6720   23.3138  -76.5689 C.2       4 UNK         0.5053 
     51 O         -75.9753   22.3725  -76.9497 O.2       4 UNK        -0.5105 
     52 CA        -76.9574   24.4703  -77.5487 C.3       4 UNK         0.0263 
     53 CB        -77.7341   23.9634  -78.7756 C.3       4 UNK        -0.1981 
     54 N         -77.6831   25.6104  -76.9796 N.am      4 UNK        -0.4224 
     55 C         -77.2225   26.4737  -76.0683 C.2       3 UNK         0.4895 
     56 O         -76.1282   26.3621  -75.5169 O.2       3 UNK        -0.5091 
     57 CA        -78.1555   27.6295  -75.6632 C.3       3 UNK         0.0250 
     58 CB        -78.0954   28.7825  -76.6823 C.3       3 UNK        -0.1996 
     59 N         -79.5488   27.2515  -75.3837 N.am      3 UNK        -0.4254 
     60 C         -80.4941   26.7826  -76.2147 C.2       2 UNK         0.5004 
     61 O         -80.2951   26.4941  -77.3949 O.2       2 UNK        -0.5226 
     62 CA        -81.9031   26.5940  -75.6213 C.3       2 UNK         0.0269 
     63 CB        -82.1276   25.1215  -75.2403 C.3       2 UNK        -0.1926 
     64 N         -82.1477   27.4387  -74.4463 N.am      2 UNK        -0.4687 
     65 C         -82.2979   28.7731  -74.4789 C.2       1 UNK         0.5165 
     66 O         -82.3595   29.4276  -75.5200 O.2       1 UNK        -0.5079 
     67 H67       -85.2393   27.8917  -70.1121 H         1 UNK         0.0900 
     68 H68       -84.8724   26.4373  -71.0435 H         1 UNK         0.0900 
     69 H69       -83.6127   27.2092  -70.0782 H         1 UNK         0.0900 
     70 H70       -82.1878   28.4139  -71.3129 H         1 UNK         0.2959 
     71 H71       -82.9991   30.3547  -73.2197 H         1 UNK         0.1079 
     72 H72       -80.6599   30.8231  -73.5413 H         1 UNK         0.0837 
     73 H73       -80.1422   29.2770  -72.9832 H         1 UNK         0.0837 
     74 H74       -80.9690   28.7352  -69.9012 H         1 UNK         0.0685 
     75 H75       -79.7906   29.7741  -69.1595 H         1 UNK         0.0685 
     76 H76       -80.2532   26.9432  -71.3382 H         1 UNK         0.1434 
     77 H77       -76.1134   26.5400  -72.3731 H         1 UNK         0.1329 
     78 H78       -77.4745   30.0218  -70.2629 H         1 UNK         0.1335 
     79 H79       -75.1872   29.8791  -70.8164 H         1 UNK         0.0680 
     80 H80       -74.6479   28.2462  -70.5148 H         1 UNK         0.0680 
     81 H81       -75.5369   30.9091  -73.2346 H         1 UNK         0.1032 
     82 H82       -76.3172   29.5325  -73.9359 H         1 UNK         0.1032 
     83 H83       -75.5477   30.7722  -75.7848 H         1 UNK         0.0461 
     84 H84       -71.7812   31.9997  -75.6368 H         1 UNK         0.3453 
     85 H85       -72.2320   30.4100  -76.1986 H         1 UNK         0.3453 
     86 H86       -74.0773   28.3272  -75.3083 H         1 UNK         0.2984 
     87 H87       -74.3511   26.8409  -77.4967 H         1 UNK         0.0554 
     88 H88       -74.2034   27.7503  -79.7916 H         1 UNK         0.0847 
     89 H89       -72.8929   26.6163  -79.5084 H         1 UNK         0.0847 
     90 H90       -72.5797   28.3513  -79.4886 H         1 UNK         0.0847 
     91 H91       -72.4710   26.3322  -76.4618 H         1 UNK         0.3141 
     92 H92       -69.2380   27.6220  -76.3175 H         1 UNK         0.0743 
     93 H93       -70.0940   29.2576  -74.6327 H         1 UNK         0.0784 
     94 H94       -71.1437   28.0306  -73.9413 H         1 UNK         0.0784 
     95 H95       -69.3896   27.8620  -73.8365 H         1 UNK         0.0784 
     96 H96       -70.6132   25.7272  -74.6438 H         1 UNK         0.3213 
     97 H97       -70.8815   23.0893  -76.8628 H         1 UNK         0.0855 
     98 H98       -68.6382   23.2591  -74.7738 H         1 UNK         0.0814 
     99 H99       -68.4232   22.8334  -76.4654 H         1 UNK         0.0814 
    100 H100      -69.3482   21.7758  -75.4146 H         1 UNK         0.0814 
    101 H101      -71.0298   23.0707  -74.0426 H         1 UNK         0.3105 
    102 H102      -73.0129   23.0344  -73.0077 H         1 UNK         0.0547 
    103 H103      -73.8928   25.1104  -71.8839 H         1 UNK         0.0837 
    104 H104      -73.6604   26.0147  -73.3771 H         1 UNK         0.0837 
    105 H105      -72.2732   25.3622  -72.5141 H         1 UNK         0.0837 
    106 H106      -75.2856   24.3825  -74.4083 H         1 UNK         0.3020 
    107 H107      -77.0823   21.4308  -74.6914 H         1 UNK         0.1245 
    108 H108      -77.9709   21.6205  -72.5290 H         1 UNK         0.0781 
    109 H109      -78.9772   22.6556  -73.4839 H         1 UNK         0.0781 
    110 H110      -78.2353   25.3623  -73.6708 H         1 UNK         0.0836 
    111 H111      -79.5972   25.0711  -72.6174 H         1 UNK         0.0836 
    112 H112      -77.7671   24.1846  -75.1120 H         1 UNK         0.3022 
    113 H113      -75.9856   24.8361  -77.8870 H         1 UNK         0.0747 
    114 H114      -77.8609   24.7516  -79.5181 H         1 UNK         0.0793 
    115 H115      -77.2075   23.1431  -79.2655 H         1 UNK         0.0793 
    116 H116      -78.7248   23.5988  -78.5010 H         1 UNK         0.0793 
    117 H117      -78.6178   25.7898  -77.3437 H         1 UNK         0.3047 
    118 H118      -77.7717   28.0078  -74.7163 H         1 UNK         0.0822 
    119 H119      -78.6817   29.6377  -76.3460 H         1 UNK         0.0807 
    120 H120      -78.4711   28.4840  -77.6614 H         1 UNK         0.0807 
    121 H121      -77.0739   29.1293  -76.8243 H         1 UNK         0.0807 
    122 H122      -79.8428   27.4150  -74.4326 H         1 UNK         0.2946 
    123 H123      -82.6221   26.8664  -76.3977 H         1 UNK         0.1144 
    124 H124      -81.4393   24.7921  -74.4613 H         1 UNK         0.0793 
    125 H125      -81.9800   24.4690  -76.1022 H         1 UNK         0.0793 
    126 H126      -83.1441   24.9556  -74.8828 H         1 UNK         0.0793 
    127 H127      -82.1606   26.9820  -73.5461 H         1 UNK         0.2896 
@<TRIPOS>BOND
     1    1    2 1    
     2    1   67 1    
     3    1   68 1    
     4    1   69 1    
     5    2    3 2    
     6    2    4 am   BACKBONE|DICT|INTERRES
     7    4    5 1    
     8    4   70 1    
     9    5    6 1    
    10    5   65 1    
    11    5   71 1    
    12    6    7 1    
    13    6   72 1    
    14    6   73 1    
    15    7    8 1    
    16    8    9 1    
    17    8   74 1    
    18    8   75 1    
    19    9   10 ar   
    20    9   14 ar   
    21   10   11 ar   
    22   10   76 1    
    23   11   12 ar   
    24   11   48 1    
    25   12   13 ar   
    26   12   77 1    
    27   13   14 ar   
    28   13   15 1    
    29   14   78 1    
    30   15   16 1    
    31   15   79 1    
    32   15   80 1    
    33   16   17 1    
    34   17   18 1    
    35   17   81 1    
    36   17   82 1    
    37   18   19 1    
    38   18   22 1    
    39   18   83 1    
    40   19   20 am   BACKBONE|DICT|INTERRES
    41   19   21 2    
    42   20   84 1    
    43   20   85 1    
    44   22   23 am   BACKBONE|DICT|INTERRES
    45   22   86 1    
    46   23   24 2    
    47   23   25 1    
    48   25   26 1    
    49   25   27 1    
    50   25   87 1    
    51   26   88 1    
    52   26   89 1    
    53   26   90 1    
    54   27   28 am   BACKBONE|DICT|INTERRES
    55   27   91 1    
    56   28   29 2    
    57   28   30 1    
    58   30   31 1    
    59   30   32 1    
    60   30   92 1    
    61   31   93 1    
    62   31   94 1    
    63   31   95 1    
    64   32   33 am   BACKBONE|DICT|INTERRES
    65   32   96 1    
    66   33   34 2    
    67   33   35 1    
    68   35   36 1    
    69   35   37 1    
    70   35   97 1    
    71   36   98 1    
    72   36   99 1    
    73   36  100 1    
    74   37   38 am   BACKBONE|DICT|INTERRES
    75   37  101 1    
    76   38   39 2    
    77   38   40 1    
    78   40   41 1    
    79   40   42 1    
    80   40  102 1    
    81   41  103 1    
    82   41  104 1    
    83   41  105 1    
    84   42   43 am   BACKBONE|DICT|INTERRES
    85   42  106 1    
    86   43   44 2    
    87   43   45 1    
    88   45   46 1    
    89   45   49 1    
    90   45  107 1    
    91   46   47 1    
    92   46  108 1    
    93   46  109 1    
    94   47   48 1    
    95   48  110 1    
    96   48  111 1    
    97   49   50 am   BACKBONE|DICT|INTERRES
    98   49  112 1    
    99   50   51 2    
   100   50   52 1    
   101   52   53 1    
   102   52   54 1    
   103   52  113 1    
   104   53  114 1    
   105   53  115 1    
   106   53  116 1    
   107   54   55 am   BACKBONE|DICT|INTERRES
   108   54  117 1    
   109   55   56 2    
   110   55   57 1    
   111   57   58 1    
   112   57   59 1    
   113   57  118 1    
   114   58  119 1    
   115   58  120 1    
   116   58  121 1    
   117   59   60 am   BACKBONE|DICT|INTERRES
   118   59  122 1    
   119   60   61 2    
   120   60   62 1    
   121   62   63 1    
   122   62   64 1    
   123   62  123 1    
   124   63  124 1    
   125   63  125 1    
   126   63  126 1    
   127   64   65 am   BACKBONE|DICT|INTERRES
   128   64  127 1    
   129   65   66 2    
@<TRIPOS>SUBSTRUCTURE
     1 UNK         1 GROUP             0       ****    0 ROOT    
