@<TRIPOS>MOLECULE
3R135
127   129    1
SMALL
USER_CHARGES


@<TRIPOS>ATOM
      1 CA        -81.4733   28.0649  -78.9317 C.3       0 UNK        -0.1998 
      2 C         -81.1688   27.4919  -77.5556 C.2       0 UNK         0.4909 
      3 O         -80.5230   26.4493  -77.4591 O.2       0 UNK        -0.5240 
      4 N         -81.6203   28.1738  -76.4954 N.am      1 UNK        -0.4739 
      5 CA        -81.4543   27.7804  -75.0905 C.3       1 UNK         0.0864 
      6 C6        -81.8916   28.9188  -74.1360 C.3       11 UNK        -0.0881 
      7 S7        -80.8211   30.3910  -74.2751 S.3       11 UNK        -0.2682 
      8 C8        -80.2344   30.6014  -72.5626 C.3       11 UNK         0.0289 
      9 C9        -78.9939   29.7693  -72.2649 C.ar      11 UNK        -0.0687 
     10 C10       -79.1097   28.4409  -71.8373 C.ar      11 UNK        -0.0823 
     11 C11       -77.9692   27.6932  -71.5234 C.ar      11 UNK        -0.0830 
     12 C12       -76.7128   28.2897  -71.6359 C.ar      11 UNK        -0.1021 
     13 C13       -76.5794   29.6164  -72.0517 C.ar      11 UNK        -0.0753 
     14 C14       -77.7246   30.3490  -72.3756 C.ar      11 UNK        -0.0933 
     15 C15       -75.1945   30.2419  -72.1540 C.3       11 UNK         0.0166 
     16 S16       -74.2469   30.0239  -70.6100 S.3       11 UNK        -0.2615 
     17 C17       -72.5404   30.4385  -71.1145 C.3       11 UNK        -0.0865 
     18 CA        -71.7722   29.3217  -71.8846 C.3       10 UNK         0.0862 
     19 C         -71.7641   27.9417  -71.1684 C.2       10 UNK         0.5551 
     20 N         -72.2848   26.8723  -71.7597 N.am      10 UNK        -0.7319 
     21 O         -71.2423   27.8335  -70.0614 O.2       10 UNK        -0.5018 
     22 N         -72.1391   29.2709  -73.3072 N.am      10 UNK        -0.4509 
     23 C         -71.7125   30.1512  -74.2205 C.2       10 UNK         0.4899 
     24 O         -70.9477   31.0844  -73.9681 O.2       10 UNK        -0.4839 
     25 CA        -72.2480   29.9641  -75.6494 C.3       9 UNK         0.0222 
     26 CB        -71.5812   30.9002  -76.6796 C.3       9 UNK        -0.1966 
     27 N         -72.1911   28.5714  -76.0982 N.am      9 UNK        -0.4218 
     28 C         -71.1105   27.7923  -76.2603 C.2       9 UNK         0.5020 
     29 O         -69.9567   28.1499  -76.0199 O.2       9 UNK        -0.5274 
     30 CA        -71.3543   26.3615  -76.7823 C.3       8 UNK         0.0270 
     31 CB        -71.1597   25.3407  -75.6485 C.3       8 UNK        -0.1976 
     32 N         -72.6871   26.1730  -77.3626 N.am      8 UNK        -0.4313 
     33 C         -73.1226   26.7093  -78.5116 C.2       8 UNK         0.5041 
     34 O         -72.4037   27.3226  -79.3007 O.2       8 UNK        -0.5577 
     35 CA        -74.6324   26.5974  -78.7860 C.3       7 UNK         0.0284 
     36 CB        -74.9779   25.2495  -79.4397 C.3       7 UNK        -0.1958 
     37 N         -75.4202   26.7862  -77.5608 N.am      7 UNK        -0.4454 
     38 C         -75.5665   27.9627  -76.9326 C.2       7 UNK         0.5089 
     39 O         -75.1176   29.0228  -77.3649 O.2       7 UNK        -0.5125 
     40 CA        -76.2919   27.9643  -75.5780 C.3       6 UNK         0.0408 
     41 CB        -77.7744   28.3056  -75.7575 C.3       6 UNK        -0.1791 
     42 N         -76.1693   26.6915  -74.8677 N.am      6 UNK        -0.4762 
     43 C         -75.1051   26.3312  -74.1360 C.2       6 UNK         0.5007 
     44 O         -74.1104   27.0444  -73.9706 O.2       6 UNK        -0.5032 
     45 CA        -75.1361   24.9083  -73.5310 C.3       5 UNK         0.0783 
     46 C46       -75.8777   24.8621  -72.1681 C.3       11 UNK        -0.0857 
     47 S47       -77.7040   25.0255  -72.2894 S.3       11 UNK        -0.2512 
     48 C48       -78.0902   26.2640  -71.0105 C.3       11 UNK         0.0225 
     49 N         -75.6794   23.9045  -74.4499 N.am      5 UNK        -0.4615 
     50 C         -75.2784   23.6604  -75.7024 C.2       4 UNK         0.5053 
     51 O         -74.2932   24.1940  -76.2083 O.2       4 UNK        -0.5105 
     52 CA        -76.1319   22.7027  -76.5607 C.3       4 UNK         0.0263 
     53 CB        -75.3204   21.4523  -76.9362 C.3       4 UNK        -0.1981 
     54 N         -77.4068   22.2847  -75.9612 N.am      4 UNK        -0.4224 
     55 C         -78.4196   23.0908  -75.6106 C.2       3 UNK         0.4895 
     56 O         -78.3966   24.3168  -75.7553 O.2       3 UNK        -0.5091 
     57 CA        -79.6220   22.4177  -74.9291 C.3       3 UNK         0.0250 
     58 CB        -79.1802   21.4191  -73.8327 C.3       3 UNK        -0.1996 
     59 N         -80.4601   23.4619  -74.3489 N.am      3 UNK        -0.4254 
     60 C         -81.6987   23.3194  -73.8639 C.2       2 UNK         0.5004 
     61 O         -82.3368   22.2668  -73.9064 O.2       2 UNK        -0.5226 
     62 CA        -82.3300   24.5515  -73.1953 C.3       2 UNK         0.0269 
     63 CB        -82.1401   24.4792  -71.6707 C.3       2 UNK        -0.1926 
     64 N         -81.7574   25.8092  -73.6814 N.am      2 UNK        -0.4687 
     65 C         -82.2080   26.4774  -74.7509 C.2       1 UNK         0.5165 
     66 O         -83.1890   26.1284  -75.4135 O.2       1 UNK        -0.5079 
     67 H67       -82.0607   27.3536  -79.5118 H         1 UNK         0.0900 
     68 H68       -82.0335   28.9978  -78.8706 H         1 UNK         0.0900 
     69 H69       -80.5461   28.2608  -79.4695 H         1 UNK         0.0900 
     70 H70       -82.1467   29.0226  -76.6434 H         1 UNK         0.2959 
     71 H71       -80.3951   27.5773  -74.9315 H         1 UNK         0.1079 
     72 H72       -82.9189   29.2209  -74.3489 H         1 UNK         0.0837 
     73 H73       -81.8977   28.5798  -73.0993 H         1 UNK         0.0837 
     74 H74       -80.0115   31.6582  -72.4075 H         1 UNK         0.0685 
     75 H75       -81.0316   30.3638  -71.8568 H         1 UNK         0.0685 
     76 H76       -80.0881   27.9968  -71.7259 H         1 UNK         0.1434 
     77 H77       -75.8249   27.7327  -71.3795 H         1 UNK         0.1329 
     78 H78       -77.6309   31.3761  -72.7006 H         1 UNK         0.1335 
     79 H79       -74.6777   29.7657  -72.9846 H         1 UNK         0.0680 
     80 H80       -75.2570   31.3058  -72.3874 H         1 UNK         0.0680 
     81 H81       -72.5533   31.3674  -71.6862 H         1 UNK         0.1032 
     82 H82       -71.9907   30.6769  -70.2023 H         1 UNK         0.1032 
     83 H83       -70.7187   29.6090  -71.8641 H         1 UNK         0.0461 
     84 H84       -72.2393   25.9903  -71.2761 H         1 UNK         0.3453 
     85 H85       -72.7820   26.9410  -72.6388 H         1 UNK         0.3453 
     86 H86       -72.7665   28.5253  -73.5875 H         1 UNK         0.2984 
     87 H87       -73.3062   30.2257  -75.6087 H         1 UNK         0.0554 
     88 H88       -71.7278   31.9467  -76.4096 H         1 UNK         0.0847 
     89 H89       -72.0070   30.7605  -77.6734 H         1 UNK         0.0847 
     90 H90       -70.5063   30.7297  -76.7476 H         1 UNK         0.0847 
     91 H91       -73.0852   28.1585  -76.3214 H         1 UNK         0.3141 
     92 H92       -70.6134   26.1637  -77.5596 H         1 UNK         0.0743 
     93 H93       -71.8791   25.4920  -74.8429 H         1 UNK         0.0784 
     94 H94       -71.2745   24.3187  -76.0107 H         1 UNK         0.0784 
     95 H95       -70.1620   25.4213  -75.2149 H         1 UNK         0.0784 
     96 H96       -73.3320   25.5876  -76.8320 H         1 UNK         0.3213 
     97 H97       -74.9037   27.3904  -79.4867 H         1 UNK         0.0855 
     98 H98       -74.6609   24.4037  -78.8302 H         1 UNK         0.0814 
     99 H99       -74.4789   25.1522  -80.4048 H         1 UNK         0.0814 
    100 H100      -76.0490   25.1555  -79.6193 H         1 UNK         0.0814 
    101 H101      -75.7957   25.9593  -77.1204 H         1 UNK         0.3105 
    102 H102      -75.8437   28.7509  -74.9675 H         1 UNK         0.0547 
    103 H103      -77.9032   29.2401  -76.3051 H         1 UNK         0.0837 
    104 H104      -78.3020   27.5252  -76.3061 H         1 UNK         0.0837 
    105 H105      -78.2577   28.4324  -74.7898 H         1 UNK         0.0837 
    106 H106      -76.9414   26.0398  -74.9461 H         1 UNK         0.3020 
    107 H107      -74.0942   24.6329  -73.3541 H         1 UNK         0.1245 
    108 H108      -75.4649   25.5982  -71.4796 H         1 UNK         0.0781 
    109 H109      -75.6791   23.9003  -71.6926 H         1 UNK         0.0781 
    110 H110      -77.4418   26.1197  -70.1450 H         1 UNK         0.0836 
    111 H111      -79.1047   26.0822  -70.6531 H         1 UNK         0.0836 
    112 H112      -76.5169   23.4420  -74.1297 H         1 UNK         0.3022 
    113 H113      -76.3733   23.2394  -77.4798 H         1 UNK         0.0747 
    114 H114      -75.8699   20.8139  -77.6283 H         1 UNK         0.0793 
    115 H115      -74.3845   21.7244  -77.4270 H         1 UNK         0.0793 
    116 H116      -75.0660   20.8580  -76.0577 H         1 UNK         0.0793 
    117 H117      -77.5091   21.2946  -75.7903 H         1 UNK         0.3047 
    118 H118      -80.1947   21.8946  -75.6973 H         1 UNK         0.0822 
    119 H119      -78.6085   20.5881  -74.2464 H         1 UNK         0.0807 
    120 H120      -80.0353   20.9763  -73.3223 H         1 UNK         0.0807 
    121 H121      -78.5615   21.9030  -73.0757 H         1 UNK         0.0807 
    122 H122      -80.0269   24.3768  -74.3514 H         1 UNK         0.2946 
    123 H123      -83.4017   24.5290  -73.4077 H         1 UNK         0.1144 
    124 H124      -82.6187   25.3210  -71.1700 H         1 UNK         0.0793 
    125 H125      -81.0850   24.4771  -71.3934 H         1 UNK         0.0793 
    126 H126      -82.5839   23.5685  -71.2659 H         1 UNK         0.0793 
    127 H127      -80.9558   26.1614  -73.1791 H         1 UNK         0.2896 
@<TRIPOS>BOND
     1    1    2 1    
     2    1   67 1    
     3    1   68 1    
     4    1   69 1    
     5    2    3 2    
     6    2    4 am   BACKBONE|DICT|INTERRES
     7    4    5 1    
     8    4   70 1    
     9    5    6 1    
    10    5   65 1    
    11    5   71 1    
    12    6    7 1    
    13    6   72 1    
    14    6   73 1    
    15    7    8 1    
    16    8    9 1    
    17    8   74 1    
    18    8   75 1    
    19    9   10 ar   
    20    9   14 ar   
    21   10   11 ar   
    22   10   76 1    
    23   11   12 ar   
    24   11   48 1    
    25   12   13 ar   
    26   12   77 1    
    27   13   14 ar   
    28   13   15 1    
    29   14   78 1    
    30   15   16 1    
    31   15   79 1    
    32   15   80 1    
    33   16   17 1    
    34   17   18 1    
    35   17   81 1    
    36   17   82 1    
    37   18   19 1    
    38   18   22 1    
    39   18   83 1    
    40   19   20 am   BACKBONE|DICT|INTERRES
    41   19   21 2    
    42   20   84 1    
    43   20   85 1    
    44   22   23 am   BACKBONE|DICT|INTERRES
    45   22   86 1    
    46   23   24 2    
    47   23   25 1    
    48   25   26 1    
    49   25   27 1    
    50   25   87 1    
    51   26   88 1    
    52   26   89 1    
    53   26   90 1    
    54   27   28 am   BACKBONE|DICT|INTERRES
    55   27   91 1    
    56   28   29 2    
    57   28   30 1    
    58   30   31 1    
    59   30   32 1    
    60   30   92 1    
    61   31   93 1    
    62   31   94 1    
    63   31   95 1    
    64   32   33 am   BACKBONE|DICT|INTERRES
    65   32   96 1    
    66   33   34 2    
    67   33   35 1    
    68   35   36 1    
    69   35   37 1    
    70   35   97 1    
    71   36   98 1    
    72   36   99 1    
    73   36  100 1    
    74   37   38 am   BACKBONE|DICT|INTERRES
    75   37  101 1    
    76   38   39 2    
    77   38   40 1    
    78   40   41 1    
    79   40   42 1    
    80   40  102 1    
    81   41  103 1    
    82   41  104 1    
    83   41  105 1    
    84   42   43 am   BACKBONE|DICT|INTERRES
    85   42  106 1    
    86   43   44 2    
    87   43   45 1    
    88   45   46 1    
    89   45   49 1    
    90   45  107 1    
    91   46   47 1    
    92   46  108 1    
    93   46  109 1    
    94   47   48 1    
    95   48  110 1    
    96   48  111 1    
    97   49   50 am   BACKBONE|DICT|INTERRES
    98   49  112 1    
    99   50   51 2    
   100   50   52 1    
   101   52   53 1    
   102   52   54 1    
   103   52  113 1    
   104   53  114 1    
   105   53  115 1    
   106   53  116 1    
   107   54   55 am   BACKBONE|DICT|INTERRES
   108   54  117 1    
   109   55   56 2    
   110   55   57 1    
   111   57   58 1    
   112   57   59 1    
   113   57  118 1    
   114   58  119 1    
   115   58  120 1    
   116   58  121 1    
   117   59   60 am   BACKBONE|DICT|INTERRES
   118   59  122 1    
   119   60   61 2    
   120   60   62 1    
   121   62   63 1    
   122   62   64 1    
   123   62  123 1    
   124   63  124 1    
   125   63  125 1    
   126   63  126 1    
   127   64   65 am   BACKBONE|DICT|INTERRES
   128   64  127 1    
   129   65   66 2    
@<TRIPOS>SUBSTRUCTURE
     1 UNK         1 GROUP             0       ****    0 ROOT    
