@<TRIPOS>MOLECULE
3R135
127   129    1
SMALL
USER_CHARGES


@<TRIPOS>ATOM
      1 CA        -75.2706   21.8274  -71.5766 C.3       0 UNK        -0.1998 
      2 C         -76.4275   22.5903  -70.9488 C.2       0 UNK         0.4909 
      3 O         -76.8918   22.2239  -69.8696 O.2       0 UNK        -0.5240 
      4 N         -76.9039   23.6440  -71.6248 N.am      1 UNK        -0.4739 
      5 CA        -77.9959   24.5199  -71.1732 C.3       1 UNK         0.0864 
      6 C6        -77.8114   25.9631  -71.7227 C.3       11 UNK        -0.0881 
      7 S7        -78.2797   27.2321  -70.5001 S.3       11 UNK        -0.2682 
      8 C8        -79.6865   28.0531  -71.3242 C.3       11 UNK         0.0289 
      9 C9        -79.3052   28.9338  -72.5140 C.ar      11 UNK        -0.0687 
     10 C10       -80.1961   29.0562  -73.5854 C.ar      11 UNK        -0.0823 
     11 C11       -79.9114   29.9046  -74.6601 C.ar      11 UNK        -0.0830 
     12 C12       -78.7210   30.6365  -74.6630 C.ar      11 UNK        -0.1021 
     13 C13       -77.8161   30.5167  -73.6054 C.ar      11 UNK        -0.0753 
     14 C14       -78.1140   29.6705  -72.5338 C.ar      11 UNK        -0.0933 
     15 C15       -76.5304   31.3249  -73.6063 C.3       11 UNK         0.0166 
     16 S16       -75.2367   30.5154  -74.5938 S.3       11 UNK        -0.2615 
     17 C17       -73.8762   31.7178  -74.3736 C.3       11 UNK        -0.0865 
     18 CA        -72.6560   31.1586  -73.5970 C.3       10 UNK         0.0862 
     19 C         -72.9784   30.8385  -72.1054 C.2       10 UNK         0.5551 
     20 N         -72.7520   29.6255  -71.6123 N.am      10 UNK        -0.7319 
     21 O         -73.4312   31.7183  -71.3773 O.2       10 UNK        -0.5018 
     22 N         -72.0158   30.0673  -74.3411 N.am      10 UNK        -0.4509 
     23 C         -70.7352   29.6983  -74.2215 C.2       10 UNK         0.4899 
     24 O         -69.9090   30.2988  -73.5324 O.2       10 UNK        -0.4839 
     25 CA        -70.3224   28.4387  -75.0058 C.3       9 UNK         0.0222 
     26 CB        -69.0113   27.8083  -74.4894 C.3       9 UNK        -0.1966 
     27 N         -71.3960   27.4381  -75.0795 N.am      9 UNK        -0.4218 
     28 C         -71.9799   26.7893  -74.0582 C.2       9 UNK         0.5020 
     29 O         -71.6752   26.9802  -72.8796 O.2       9 UNK        -0.5274 
     30 CA        -73.1169   25.7915  -74.3764 C.3       8 UNK         0.0270 
     31 CB        -74.3358   26.0470  -73.4727 C.3       8 UNK        -0.1976 
     32 N         -73.5622   25.8041  -75.7737 N.am      8 UNK        -0.4313 
     33 C         -72.8936   25.2896  -76.8151 C.2       8 UNK         0.5041 
     34 O         -71.8476   24.6501  -76.7053 O.2       8 UNK        -0.5577 
     35 CA        -73.4431   25.5984  -78.2205 C.3       7 UNK         0.0284 
     36 CB        -74.4002   24.4921  -78.6907 C.3       7 UNK        -0.1958 
     37 N         -74.1165   26.8984  -78.3189 N.am      7 UNK        -0.4454 
     38 C         -73.5659   28.0962  -78.0783 C.2       7 UNK         0.5089 
     39 O         -72.3864   28.2460  -77.7600 O.2       7 UNK        -0.5125 
     40 CA        -74.4805   29.3357  -78.1524 C.3       6 UNK         0.0408 
     41 CB        -74.5064   29.9279  -79.5743 C.3       6 UNK        -0.1791 
     42 N         -75.8349   29.1216  -77.6158 N.am      6 UNK        -0.4762 
     43 C         -76.8134   28.3494  -78.1092 C.2       6 UNK         0.5007 
     44 O         -76.7330   27.7393  -79.1780 O.2       6 UNK        -0.5032 
     45 CA        -78.0653   28.1614  -77.2321 C.3       5 UNK         0.0783 
     46 C46       -79.2805   28.9081  -77.8368 C.3       11 UNK        -0.0857 
     47 S47       -80.8383   28.6156  -76.9283 S.3       11 UNK        -0.2512 
     48 C48       -80.9036   30.0443  -75.8046 C.3       11 UNK         0.0225 
     49 N         -78.3310   26.7362  -77.0271 N.am      5 UNK        -0.4615 
     50 C         -77.5102   25.8729  -76.4198 C.2       4 UNK         0.5053 
     51 O         -76.4075   26.1855  -75.9674 O.2       4 UNK        -0.5105 
     52 CA        -78.0252   24.4296  -76.2754 C.3       4 UNK         0.0263 
     53 CB        -77.0304   23.5147  -75.5357 C.3       4 UNK        -0.1981 
     54 N         -79.3056   24.3935  -75.5680 N.am      4 UNK        -0.4224 
     55 C         -80.5137   24.6251  -76.1008 C.2       3 UNK         0.4895 
     56 O         -80.6827   24.9100  -77.2875 O.2       3 UNK        -0.5091 
     57 CA        -81.7241   24.5596  -75.1435 C.3       3 UNK         0.0250 
     58 CB        -83.0063   24.0614  -75.8432 C.3       3 UNK        -0.1996 
     59 N         -81.4586   23.8013  -73.9105 N.am      3 UNK        -0.4254 
     60 C         -81.1580   22.4981  -73.7977 C.2       2 UNK         0.5004 
     61 O         -81.1439   21.7080  -74.7428 O.2       2 UNK        -0.5226 
     62 CA        -80.7186   22.0323  -72.3968 C.3       2 UNK         0.0269 
     63 CB        -80.4975   20.5098  -72.3186 C.3       2 UNK        -0.1926 
     64 N         -79.4817   22.7089  -71.9907 N.am      2 UNK        -0.4687 
     65 C         -79.4018   23.9479  -71.4834 C.2       1 UNK         0.5165 
     66 O         -80.4003   24.6453  -71.2994 O.2       1 UNK        -0.5079 
     67 H67       -74.4098   21.8370  -70.9084 H         1 UNK         0.0900 
     68 H68       -74.9640   22.2594  -72.5292 H         1 UNK         0.0900 
     69 H69       -75.5550   20.7900  -71.7504 H         1 UNK         0.0900 
     70 H70       -76.4800   23.8913  -72.5060 H         1 UNK         0.2959 
     71 H71       -77.9365   24.5632  -70.0830 H         1 UNK         0.1079 
     72 H72       -76.7617   26.1541  -71.9467 H         1 UNK         0.0837 
     73 H73       -78.3384   26.1172  -72.6669 H         1 UNK         0.0837 
     74 H74       -80.4076   27.2932  -71.6279 H         1 UNK         0.0685 
     75 H75       -80.1937   28.6792  -70.5894 H         1 UNK         0.0685 
     76 H76       -81.1243   28.5008  -73.5795 H         1 UNK         0.1434 
     77 H77       -78.4957   31.2994  -75.4874 H         1 UNK         0.1329 
     78 H78       -77.4194   29.5993  -71.7086 H         1 UNK         0.1335 
     79 H79       -76.7236   32.3213  -74.0071 H         1 UNK         0.0680 
     80 H80       -76.1705   31.4660  -72.5857 H         1 UNK         0.0680 
     81 H81       -73.5568   32.0450  -75.3643 H         1 UNK         0.1032 
     82 H82       -74.2476   32.6204  -73.8847 H         1 UNK         0.1032 
     83 H83       -71.9296   31.9725  -73.5535 H         1 UNK         0.0461 
     84 H84       -72.3609   28.8896  -72.1867 H         1 UNK         0.3453 
     85 H85       -72.9630   29.4440  -70.6444 H         1 UNK         0.3453 
     86 H86       -72.6296   29.5064  -74.9128 H         1 UNK         0.2984 
     87 H87       -70.1464   28.7668  -76.0311 H         1 UNK         0.0554 
     88 H88       -68.7410   26.9251  -75.0680 H         1 UNK         0.0847 
     89 H89       -69.0874   27.5135  -73.4423 H         1 UNK         0.0847 
     90 H90       -68.1815   28.5118  -74.5680 H         1 UNK         0.0847 
     91 H91       -71.7484   27.2665  -76.0150 H         1 UNK         0.3141 
     92 H92       -72.7326   24.7945  -74.1521 H         1 UNK         0.0743 
     93 H93       -74.7580   27.0396  -73.6377 H         1 UNK         0.0784 
     94 H94       -75.1205   25.3160  -73.6594 H         1 UNK         0.0784 
     95 H95       -74.0729   25.9733  -72.4166 H         1 UNK         0.0784 
     96 H96       -74.4690   26.2311  -75.9509 H         1 UNK         0.3213 
     97 H97       -72.5894   25.6228  -78.9010 H         1 UNK         0.0855 
     98 H98       -75.3120   24.4669  -78.0951 H         1 UNK         0.0814 
     99 H99       -73.9316   23.5098  -78.6153 H         1 UNK         0.0814 
    100 H100      -74.6868   24.6341  -79.7328 H         1 UNK         0.0814 
    101 H101      -75.0934   26.8957  -78.5975 H         1 UNK         0.3105 
    102 H102      -74.0305   30.0869  -77.5013 H         1 UNK         0.0547 
    103 H103      -73.5006   30.2003  -79.8966 H         1 UNK         0.0837 
    104 H104      -74.8973   29.2232  -80.3083 H         1 UNK         0.0837 
    105 H105      -75.1153   30.8307  -79.6171 H         1 UNK         0.0837 
    106 H106      -75.9815   29.5396  -76.7046 H         1 UNK         0.3020 
    107 H107      -77.8577   28.5777  -76.2452 H         1 UNK         0.1245 
    108 H108      -79.4459   28.5884  -78.8678 H         1 UNK         0.0781 
    109 H109      -79.0857   29.9811  -77.8833 H         1 UNK         0.0781 
    110 H110      -81.9128   30.1234  -75.3975 H         1 UNK         0.0836 
    111 H111      -80.7323   30.9650  -76.3644 H         1 UNK         0.0836 
    112 H112      -79.2255   26.3929  -77.3588 H         1 UNK         0.3022 
    113 H113      -78.1619   24.0315  -77.2832 H         1 UNK         0.0747 
    114 H114      -77.3938   22.4877  -75.4931 H         1 UNK         0.0793 
    115 H115      -76.0623   23.4930  -76.0370 H         1 UNK         0.0793 
    116 H116      -76.8591   23.8524  -74.5151 H         1 UNK         0.0793 
    117 H117      -79.2665   24.1858  -74.5828 H         1 UNK         0.3047 
    118 H118      -81.9037   25.5890  -74.8288 H         1 UNK         0.0822 
    119 H119      -83.8496   24.0323  -75.1534 H         1 UNK         0.0807 
    120 H120      -82.8792   23.0627  -76.2618 H         1 UNK         0.0807 
    121 H121      -83.2851   24.7226  -76.6648 H         1 UNK         0.0807 
    122 H122      -81.4006   24.3528  -73.0592 H         1 UNK         0.2946 
    123 H123      -81.5195   22.2899  -71.6993 H         1 UNK         0.1144 
    124 H124      -79.7006   20.1801  -72.9866 H         1 UNK         0.0793 
    125 H125      -81.4027   19.9691  -72.5982 H         1 UNK         0.0793 
    126 H126      -80.2361   20.1993  -71.3068 H         1 UNK         0.0793 
    127 H127      -78.6212   22.1977  -72.1235 H         1 UNK         0.2896 
@<TRIPOS>BOND
     1    1    2 1    
     2    1   67 1    
     3    1   68 1    
     4    1   69 1    
     5    2    3 2    
     6    2    4 am   BACKBONE|DICT|INTERRES
     7    4    5 1    
     8    4   70 1    
     9    5    6 1    
    10    5   65 1    
    11    5   71 1    
    12    6    7 1    
    13    6   72 1    
    14    6   73 1    
    15    7    8 1    
    16    8    9 1    
    17    8   74 1    
    18    8   75 1    
    19    9   10 ar   
    20    9   14 ar   
    21   10   11 ar   
    22   10   76 1    
    23   11   12 ar   
    24   11   48 1    
    25   12   13 ar   
    26   12   77 1    
    27   13   14 ar   
    28   13   15 1    
    29   14   78 1    
    30   15   16 1    
    31   15   79 1    
    32   15   80 1    
    33   16   17 1    
    34   17   18 1    
    35   17   81 1    
    36   17   82 1    
    37   18   19 1    
    38   18   22 1    
    39   18   83 1    
    40   19   20 am   BACKBONE|DICT|INTERRES
    41   19   21 2    
    42   20   84 1    
    43   20   85 1    
    44   22   23 am   BACKBONE|DICT|INTERRES
    45   22   86 1    
    46   23   24 2    
    47   23   25 1    
    48   25   26 1    
    49   25   27 1    
    50   25   87 1    
    51   26   88 1    
    52   26   89 1    
    53   26   90 1    
    54   27   28 am   BACKBONE|DICT|INTERRES
    55   27   91 1    
    56   28   29 2    
    57   28   30 1    
    58   30   31 1    
    59   30   32 1    
    60   30   92 1    
    61   31   93 1    
    62   31   94 1    
    63   31   95 1    
    64   32   33 am   BACKBONE|DICT|INTERRES
    65   32   96 1    
    66   33   34 2    
    67   33   35 1    
    68   35   36 1    
    69   35   37 1    
    70   35   97 1    
    71   36   98 1    
    72   36   99 1    
    73   36  100 1    
    74   37   38 am   BACKBONE|DICT|INTERRES
    75   37  101 1    
    76   38   39 2    
    77   38   40 1    
    78   40   41 1    
    79   40   42 1    
    80   40  102 1    
    81   41  103 1    
    82   41  104 1    
    83   41  105 1    
    84   42   43 am   BACKBONE|DICT|INTERRES
    85   42  106 1    
    86   43   44 2    
    87   43   45 1    
    88   45   46 1    
    89   45   49 1    
    90   45  107 1    
    91   46   47 1    
    92   46  108 1    
    93   46  109 1    
    94   47   48 1    
    95   48  110 1    
    96   48  111 1    
    97   49   50 am   BACKBONE|DICT|INTERRES
    98   49  112 1    
    99   50   51 2    
   100   50   52 1    
   101   52   53 1    
   102   52   54 1    
   103   52  113 1    
   104   53  114 1    
   105   53  115 1    
   106   53  116 1    
   107   54   55 am   BACKBONE|DICT|INTERRES
   108   54  117 1    
   109   55   56 2    
   110   55   57 1    
   111   57   58 1    
   112   57   59 1    
   113   57  118 1    
   114   58  119 1    
   115   58  120 1    
   116   58  121 1    
   117   59   60 am   BACKBONE|DICT|INTERRES
   118   59  122 1    
   119   60   61 2    
   120   60   62 1    
   121   62   63 1    
   122   62   64 1    
   123   62  123 1    
   124   63  124 1    
   125   63  125 1    
   126   63  126 1    
   127   64   65 am   BACKBONE|DICT|INTERRES
   128   64  127 1    
   129   65   66 2    
@<TRIPOS>SUBSTRUCTURE
     1 UNK         1 GROUP             0       ****    0 ROOT    
