@<TRIPOS>MOLECULE
3R135
127   129    1
SMALL
USER_CHARGES


@<TRIPOS>ATOM
      1 CA        -85.8953   26.9665  -73.1476 C.3       0 UNK        -0.1998 
      2 C         -84.5937   27.5886  -73.6302 C.2       0 UNK         0.4909 
      3 O         -84.6211   28.5035  -74.4538 O.2       0 UNK        -0.5240 
      4 N         -83.4542   27.1003  -73.1222 N.am      1 UNK        -0.4739 
      5 CA        -82.1086   27.5759  -73.4718 C.3       1 UNK         0.0864 
      6 C6        -81.0473   27.0715  -72.4654 C.3       11 UNK        -0.0881 
      7 S7        -81.2104   27.8830  -70.8413 S.3       11 UNK        -0.2682 
      8 C8        -79.5636   27.5793  -70.1015 C.3       11 UNK         0.0289 
      9 C9        -78.3661   28.2420  -70.7929 C.ar      11 UNK        -0.0687 
     10 C10       -78.5031   29.2501  -71.7579 C.ar      11 UNK        -0.0823 
     11 C11       -77.3809   29.8082  -72.3778 C.ar      11 UNK        -0.0830 
     12 C12       -76.1054   29.3868  -71.9957 C.ar      11 UNK        -0.1021 
     13 C13       -75.9483   28.3923  -71.0271 C.ar      11 UNK        -0.0753 
     14 C14       -77.0795   27.8237  -70.4342 C.ar      11 UNK        -0.0933 
     15 C15       -74.5532   27.9292  -70.6387 C.3       11 UNK         0.0166 
     16 S16       -73.9802   26.6344  -71.7784 S.3       11 UNK        -0.2615 
     17 C17       -72.1596   26.7449  -71.6544 C.3       11 UNK        -0.0865 
     18 CA        -71.5524   28.0677  -72.2025 C.3       10 UNK         0.0862 
     19 C         -69.9964   28.0389  -72.1950 C.2       10 UNK         0.5551 
     20 N         -69.3109   28.4097  -73.2712 N.am      10 UNK        -0.7319 
     21 O         -69.3949   27.6908  -71.1817 O.2       10 UNK        -0.5018 
     22 N         -72.1185   28.4398  -73.5070 N.am      10 UNK        -0.4509 
     23 C         -72.5107   29.6745  -73.8454 C.2       10 UNK         0.4899 
     24 O         -72.4943   30.6319  -73.0700 O.2       10 UNK        -0.4839 
     25 CA        -73.0181   29.8797  -75.2875 C.3       9 UNK         0.0222 
     26 CB        -72.8386   31.3301  -75.7828 C.3       9 UNK        -0.1966 
     27 N         -72.4684   28.9274  -76.2607 N.am      9 UNK        -0.4218 
     28 C         -71.1721   28.7257  -76.5449 C.2       9 UNK         0.5020 
     29 O         -70.2527   29.3547  -76.0156 O.2       9 UNK        -0.5274 
     30 CA        -70.8491   27.6083  -77.5587 C.3       8 UNK         0.0270 
     31 CB        -69.3578   27.2101  -77.5404 C.3       8 UNK        -0.1976 
     32 N         -71.6838   26.4073  -77.4173 N.am      8 UNK        -0.4313 
     33 C         -71.8959   25.6754  -76.3134 C.2       8 UNK         0.5041 
     34 O         -71.4805   25.9812  -75.1936 O.2       8 UNK        -0.5577 
     35 CA        -72.7384   24.3997  -76.5089 C.3       7 UNK         0.0284 
     36 CB        -72.7857   23.5212  -75.2446 C.3       7 UNK        -0.1958 
     37 N         -74.1022   24.7360  -76.9268 N.am      7 UNK        -0.4454 
     38 C         -74.4574   25.0649  -78.1795 C.2       7 UNK         0.5089 
     39 O         -73.6708   25.0349  -79.1275 O.2       7 UNK        -0.5125 
     40 CA        -75.8971   25.5628  -78.4278 C.3       6 UNK         0.0408 
     41 CB        -76.7701   24.4277  -78.9838 C.3       6 UNK        -0.1791 
     42 N         -76.5448   26.1439  -77.2489 N.am      6 UNK        -0.4762 
     43 C         -76.0825   27.1971  -76.5563 C.2       6 UNK         0.5007 
     44 O         -75.1039   27.8574  -76.9082 O.2       6 UNK        -0.5032 
     45 CA        -76.7783   27.5164  -75.2139 C.3       5 UNK         0.0783 
     46 C46       -77.7641   28.7073  -75.3342 C.3       11 UNK        -0.0857 
     47 S47       -76.9284   30.3133  -75.0932 S.3       11 UNK        -0.2512 
     48 C48       -77.5537   30.8607  -73.4668 C.3       11 UNK         0.0225 
     49 N         -77.4038   26.3355  -74.6001 N.am      5 UNK        -0.4615 
     50 C         -76.7162   25.2689  -74.1642 C.2       4 UNK         0.5053 
     51 O         -75.5057   25.1340  -74.3189 O.2       4 UNK        -0.5105 
     52 CA        -77.5134   24.1379  -73.5002 C.3       4 UNK         0.0263 
     53 CB        -78.0804   24.5712  -72.1397 C.3       4 UNK        -0.1981 
     54 N         -78.5797   23.6470  -74.3740 N.am      4 UNK        -0.4224 
     55 C         -78.3549   22.9192  -75.4779 C.2       3 UNK         0.4895 
     56 O         -77.2397   22.5354  -75.8307 O.2       3 UNK        -0.5091 
     57 CA        -79.5715   22.5534  -76.3444 C.3       3 UNK         0.0250 
     58 CB        -80.1189   21.1737  -75.9441 C.3       3 UNK        -0.1996 
     59 N         -80.6635   23.5324  -76.3211 N.am      3 UNK        -0.4254 
     60 C         -80.5755   24.8016  -76.7447 C.2       2 UNK         0.5004 
     61 O         -79.5216   25.3400  -77.0860 O.2       2 UNK        -0.5226 
     62 CA        -81.8900   25.5988  -76.7821 C.3       2 UNK         0.0269 
     63 CB        -83.0721   24.7802  -77.3372 C.3       2 UNK        -0.1926 
     64 N         -82.2296   26.1063  -75.4528 N.am      2 UNK        -0.4687 
     65 C         -81.6917   27.2074  -74.9107 C.2       1 UNK         0.5165 
     66 O         -80.8866   27.9272  -75.4987 O.2       1 UNK        -0.5079 
     67 H67       -85.7238   26.1752  -72.4180 H         1 UNK         0.0900 
     68 H68       -86.4417   26.5401  -73.9884 H         1 UNK         0.0900 
     69 H69       -86.5236   27.7256  -72.6823 H         1 UNK         0.0900 
     70 H70       -83.4941   26.3690  -72.4262 H         1 UNK         0.2959 
     71 H71       -82.1226   28.6681  -73.4348 H         1 UNK         0.1079 
     72 H72       -81.1200   25.9907  -72.3318 H         1 UNK         0.0837 
     73 H73       -80.0434   27.2676  -72.8433 H         1 UNK         0.0837 
     74 H74       -79.5915   27.9265  -69.0679 H         1 UNK         0.0685 
     75 H75       -79.4052   26.5008  -70.0565 H         1 UNK         0.0685 
     76 H76       -79.4841   29.5982  -72.0465 H         1 UNK         0.1434 
     77 H77       -75.2341   29.8194  -72.4682 H         1 UNK         0.1329 
     78 H78       -76.9561   27.0481  -69.6905 H         1 UNK         0.1335 
     79 H79       -74.5413   27.5452  -69.6177 H         1 UNK         0.0680 
     80 H80       -73.8778   28.7839  -70.6561 H         1 UNK         0.0680 
     81 H81       -71.8722   26.5952  -70.6121 H         1 UNK         0.1032 
     82 H82       -71.7502   25.8958  -72.2056 H         1 UNK         0.1032 
     83 H83       -71.8012   28.8459  -71.4811 H         1 UNK         0.0461 
     84 H84       -69.7861   28.7097  -74.1152 H         1 UNK         0.3453 
     85 H85       -68.3043   28.3902  -73.2440 H         1 UNK         0.3453 
     86 H86       -72.1138   27.7021  -74.2046 H         1 UNK         0.2984 
     87 H87       -74.0873   29.6792  -75.2475 H         1 UNK         0.0554 
     88 H88       -73.2328   31.4556  -76.7911 H         1 UNK         0.0847 
     89 H89       -71.7896   31.6275  -75.7910 H         1 UNK         0.0847 
     90 H90       -73.3720   32.0324  -75.1410 H         1 UNK         0.0847 
     91 H91       -73.1669   28.3462  -76.7165 H         1 UNK         0.3141 
     92 H92       -71.0701   28.0224  -78.5434 H         1 UNK         0.0743 
     93 H93       -68.7183   28.0665  -77.7580 H         1 UNK         0.0784 
     94 H94       -69.0597   26.8187  -76.5668 H         1 UNK         0.0784 
     95 H95       -69.1405   26.4482  -78.2890 H         1 UNK         0.0784 
     96 H96       -72.1378   26.0809  -78.2658 H         1 UNK         0.3213 
     97 H97       -72.2625   23.8097  -77.2953 H         1 UNK         0.0855 
     98 H98       -73.1686   24.0674  -74.3822 H         1 UNK         0.0814 
     99 H99       -71.7875   23.1691  -74.9823 H         1 UNK         0.0814 
    100 H100      -73.4140   22.6427  -75.3918 H         1 UNK         0.0814 
    101 H101      -74.7800   24.8434  -76.1770 H         1 UNK         0.3105 
    102 H102      -75.8411   26.3481  -79.1842 H         1 UNK         0.0547 
    103 H103      -77.7710   24.7803  -79.2333 H         1 UNK         0.0837 
    104 H104      -76.3370   24.0129  -79.8950 H         1 UNK         0.0837 
    105 H105      -76.8699   23.6101  -78.2702 H         1 UNK         0.0837 
    106 H106      -77.3933   25.6913  -76.9253 H         1 UNK         0.3020 
    107 H107      -75.9793   27.8045  -74.5254 H         1 UNK         0.1245 
    108 H108      -78.5517   28.6256  -74.5859 H         1 UNK         0.0781 
    109 H109      -78.2814   28.7083  -76.2959 H         1 UNK         0.0781 
    110 H110      -78.6028   31.1406  -73.5738 H         1 UNK         0.0836 
    111 H111      -77.0247   31.7684  -73.1730 H         1 UNK         0.0836 
    112 H112      -78.4078   26.3492  -74.5137 H         1 UNK         0.3022 
    113 H113      -76.8211   23.3130  -73.3156 H         1 UNK         0.0747 
    114 H114      -78.5966   23.7498  -71.6428 H         1 UNK         0.0793 
    115 H115      -77.2788   24.8992  -71.4761 H         1 UNK         0.0793 
    116 H116      -78.7774   25.3998  -72.2342 H         1 UNK         0.0793 
    117 H117      -79.5291   23.9054  -74.1512 H         1 UNK         0.3047 
    118 H118      -79.2180   22.4907  -77.3760 H         1 UNK         0.0822 
    119 H119      -79.3334   20.4171  -75.9775 H         1 UNK         0.0807 
    120 H120      -80.9078   20.8466  -76.6217 H         1 UNK         0.0807 
    121 H121      -80.5242   21.1775  -74.9314 H         1 UNK         0.0807 
    122 H122      -81.5706   23.1848  -76.0463 H         1 UNK         0.2946 
    123 H123      -81.7298   26.4425  -77.4583 H         1 UNK         0.1144 
    124 H124      -83.3777   23.9770  -76.6663 H         1 UNK         0.0793 
    125 H125      -82.8197   24.3300  -78.2986 H         1 UNK         0.0793 
    126 H126      -83.9416   25.4171  -77.5017 H         1 UNK         0.0793 
    127 H127      -82.8894   25.5737  -74.9047 H         1 UNK         0.2896 
@<TRIPOS>BOND
     1    1    2 1    
     2    1   67 1    
     3    1   68 1    
     4    1   69 1    
     5    2    3 2    
     6    2    4 am   BACKBONE|DICT|INTERRES
     7    4    5 1    
     8    4   70 1    
     9    5    6 1    
    10    5   65 1    
    11    5   71 1    
    12    6    7 1    
    13    6   72 1    
    14    6   73 1    
    15    7    8 1    
    16    8    9 1    
    17    8   74 1    
    18    8   75 1    
    19    9   10 ar   
    20    9   14 ar   
    21   10   11 ar   
    22   10   76 1    
    23   11   12 ar   
    24   11   48 1    
    25   12   13 ar   
    26   12   77 1    
    27   13   14 ar   
    28   13   15 1    
    29   14   78 1    
    30   15   16 1    
    31   15   79 1    
    32   15   80 1    
    33   16   17 1    
    34   17   18 1    
    35   17   81 1    
    36   17   82 1    
    37   18   19 1    
    38   18   22 1    
    39   18   83 1    
    40   19   20 am   BACKBONE|DICT|INTERRES
    41   19   21 2    
    42   20   84 1    
    43   20   85 1    
    44   22   23 am   BACKBONE|DICT|INTERRES
    45   22   86 1    
    46   23   24 2    
    47   23   25 1    
    48   25   26 1    
    49   25   27 1    
    50   25   87 1    
    51   26   88 1    
    52   26   89 1    
    53   26   90 1    
    54   27   28 am   BACKBONE|DICT|INTERRES
    55   27   91 1    
    56   28   29 2    
    57   28   30 1    
    58   30   31 1    
    59   30   32 1    
    60   30   92 1    
    61   31   93 1    
    62   31   94 1    
    63   31   95 1    
    64   32   33 am   BACKBONE|DICT|INTERRES
    65   32   96 1    
    66   33   34 2    
    67   33   35 1    
    68   35   36 1    
    69   35   37 1    
    70   35   97 1    
    71   36   98 1    
    72   36   99 1    
    73   36  100 1    
    74   37   38 am   BACKBONE|DICT|INTERRES
    75   37  101 1    
    76   38   39 2    
    77   38   40 1    
    78   40   41 1    
    79   40   42 1    
    80   40  102 1    
    81   41  103 1    
    82   41  104 1    
    83   41  105 1    
    84   42   43 am   BACKBONE|DICT|INTERRES
    85   42  106 1    
    86   43   44 2    
    87   43   45 1    
    88   45   46 1    
    89   45   49 1    
    90   45  107 1    
    91   46   47 1    
    92   46  108 1    
    93   46  109 1    
    94   47   48 1    
    95   48  110 1    
    96   48  111 1    
    97   49   50 am   BACKBONE|DICT|INTERRES
    98   49  112 1    
    99   50   51 2    
   100   50   52 1    
   101   52   53 1    
   102   52   54 1    
   103   52  113 1    
   104   53  114 1    
   105   53  115 1    
   106   53  116 1    
   107   54   55 am   BACKBONE|DICT|INTERRES
   108   54  117 1    
   109   55   56 2    
   110   55   57 1    
   111   57   58 1    
   112   57   59 1    
   113   57  118 1    
   114   58  119 1    
   115   58  120 1    
   116   58  121 1    
   117   59   60 am   BACKBONE|DICT|INTERRES
   118   59  122 1    
   119   60   61 2    
   120   60   62 1    
   121   62   63 1    
   122   62   64 1    
   123   62  123 1    
   124   63  124 1    
   125   63  125 1    
   126   63  126 1    
   127   64   65 am   BACKBONE|DICT|INTERRES
   128   64  127 1    
   129   65   66 2    
@<TRIPOS>SUBSTRUCTURE
     1 UNK         1 GROUP             0       ****    0 ROOT    
