@<TRIPOS>MOLECULE
3R135
127   129    1
SMALL
USER_CHARGES


@<TRIPOS>ATOM
      1 CA        -80.7730   26.1962  -69.5160 C.3       0 UNK        -0.1998 
      2 C         -81.7697   26.5742  -70.6010 C.2       0 UNK         0.4909 
      3 O         -82.9147   26.1228  -70.5691 O.2       0 UNK        -0.5240 
      4 N         -81.3391   27.4052  -71.5584 N.am      1 UNK        -0.4739 
      5 CA        -82.1432   27.9061  -72.6836 C.3       1 UNK         0.0864 
      6 C6        -81.4648   29.0953  -73.4160 C.3       11 UNK        -0.0881 
      7 S7        -80.9219   30.4367  -72.2935 S.3       11 UNK        -0.2682 
      8 C8        -79.1940   30.7219  -72.8154 C.3       11 UNK         0.0289 
      9 C9        -78.1815   29.8682  -72.0561 C.ar      11 UNK        -0.0687 
     10 C10       -78.2468   28.4742  -72.1084 C.ar      11 UNK        -0.0823 
     11 C11       -77.3065   27.6753  -71.4460 C.ar      11 UNK        -0.0830 
     12 C12       -76.2730   28.2976  -70.7427 C.ar      11 UNK        -0.1021 
     13 C13       -76.1719   29.6907  -70.7038 C.ar      11 UNK        -0.0753 
     14 C14       -77.1398   30.4718  -71.3439 C.ar      11 UNK        -0.0933 
     15 C15       -74.9984   30.3381  -69.9858 C.3       11 UNK         0.0166 
     16 S16       -73.5071   30.3417  -71.0324 S.3       11 UNK        -0.2615 
     17 C17       -73.8132   31.8141  -72.0700 C.3       11 UNK        -0.0865 
     18 CA        -72.8700   31.9430  -73.2946 C.3       10 UNK         0.0862 
     19 C         -71.3867   32.2008  -72.8892 C.2       10 UNK         0.5551 
     20 N         -70.4266   31.3715  -73.2833 N.am      10 UNK        -0.7319 
     21 O         -71.1012   33.1875  -72.2148 O.2       10 UNK        -0.5018 
     22 N         -73.0733   30.8493  -74.2576 N.am      10 UNK        -0.4509 
     23 C         -72.7775   30.9269  -75.5620 C.2       10 UNK         0.4899 
     24 O         -72.3983   31.9634  -76.1103 O.2       10 UNK        -0.4839 
     25 CA        -72.9295   29.6357  -76.3943 C.3       9 UNK         0.0222 
     26 CB        -72.0837   29.6661  -77.6846 C.3       9 UNK        -0.1966 
     27 N         -72.6666   28.3969  -75.6498 N.am      9 UNK        -0.4218 
     28 C         -71.5554   28.0665  -74.9717 C.2       9 UNK         0.5020 
     29 O         -70.5908   28.8161  -74.8147 O.2       9 UNK        -0.5274 
     30 CA        -71.5206   26.6577  -74.3633 C.3       8 UNK         0.0270 
     31 CB        -72.3875   26.5951  -73.0926 C.3       8 UNK        -0.1976 
     32 N         -71.9844   25.6598  -75.3307 N.am      8 UNK        -0.4313 
     33 C         -71.1888   24.9580  -76.1509 C.2       8 UNK         0.5041 
     34 O         -69.9591   25.0281  -76.1351 O.2       8 UNK        -0.5577 
     35 CA        -71.8665   24.0057  -77.1576 C.3       7 UNK         0.0284 
     36 CB        -71.9492   22.5841  -76.5784 C.3       7 UNK        -0.1958 
     37 N         -73.2085   24.4381  -77.5534 N.am      7 UNK        -0.4454 
     38 C         -73.4697   25.4970  -78.3347 C.2       7 UNK         0.5089 
     39 O         -72.5997   26.1476  -78.9125 O.2       7 UNK        -0.5125 
     40 CA        -74.9456   25.9283  -78.4715 C.3       6 UNK         0.0408 
     41 CB        -75.5284   25.4300  -79.8028 C.3       6 UNK        -0.1791 
     42 N         -75.8105   25.4797  -77.3731 N.am      6 UNK        -0.4762 
     43 C         -75.6274   25.7635  -76.0738 C.2       6 UNK         0.5007 
     44 O         -74.7300   26.5038  -75.6710 O.2       6 UNK        -0.5032 
     45 CA        -76.5384   25.0797  -75.0352 C.3       5 UNK         0.0783 
     46 C46       -77.3899   26.1336  -74.3000 C.3       11 UNK        -0.0857 
     47 S47       -78.2956   25.4302  -72.8786 S.3       11 UNK        -0.2512 
     48 C48       -77.3540   26.1452  -71.4855 C.3       11 UNK         0.0225 
     49 N         -77.3531   23.9973  -75.5958 N.am      5 UNK        -0.4615 
     50 C         -76.8718   22.8249  -76.0341 C.2       4 UNK         0.5053 
     51 O         -75.6740   22.5384  -76.0148 O.2       4 UNK        -0.5105 
     52 CA        -77.8764   21.8108  -76.6135 C.3       4 UNK         0.0263 
     53 CB        -78.1453   20.6899  -75.5967 C.3       4 UNK        -0.1981 
     54 N         -79.1551   22.4024  -77.0185 N.am      4 UNK        -0.4224 
     55 C         -79.3258   23.2820  -78.0171 C.2       3 UNK         0.4895 
     56 O         -78.4160   23.6682  -78.7516 O.2       3 UNK        -0.5091 
     57 CA        -80.7441   23.8593  -78.1937 C.3       3 UNK         0.0250 
     58 CB        -81.5353   23.0373  -79.2236 C.3       3 UNK        -0.1996 
     59 N         -81.5046   23.9350  -76.9376 N.am      3 UNK        -0.4254 
     60 C         -81.1639   24.7098  -75.8979 C.2       2 UNK         0.5004 
     61 O         -80.1906   25.4646  -75.9088 O.2       2 UNK        -0.5226 
     62 CA        -82.0011   24.5545  -74.6194 C.3       2 UNK         0.0269 
     63 CB        -81.5962   23.2691  -73.8765 C.3       2 UNK        -0.1926 
     64 N         -81.7960   25.6884  -73.7168 N.am      2 UNK        -0.4687 
     65 C         -82.5352   26.8057  -73.6992 C.2       1 UNK         0.5165 
     66 O         -83.5015   26.9900  -74.4413 O.2       1 UNK        -0.5079 
     67 H67       -81.2289   26.3022  -68.5319 H         1 UNK         0.0900 
     68 H68       -80.4608   25.1595  -69.6388 H         1 UNK         0.0900 
     69 H69       -79.8849   26.8275  -69.5440 H         1 UNK         0.0900 
     70 H70       -80.4055   27.7832  -71.4922 H         1 UNK         0.2959 
     71 H71       -83.0799   28.2743  -72.2590 H         1 UNK         0.1079 
     72 H72       -80.6248   28.7490  -74.0198 H         1 UNK         0.0837 
     73 H73       -82.1658   29.5362  -74.1276 H         1 UNK         0.0837 
     74 H74       -78.9750   31.7803  -72.6661 H         1 UNK         0.0685 
     75 H75       -79.0904   30.5452  -73.8867 H         1 UNK         0.0685 
     76 H76       -79.0208   28.0127  -72.6960 H         1 UNK         0.1434 
     77 H77       -75.5249   27.6965  -70.2433 H         1 UNK         0.1329 
     78 H78       -77.0645   31.5500  -71.3105 H         1 UNK         0.1335 
     79 H79       -75.2413   31.3565  -69.6782 H         1 UNK         0.0680 
     80 H80       -74.7833   29.7863  -69.0695 H         1 UNK         0.0680 
     81 H81       -73.7391   32.7030  -71.4406 H         1 UNK         0.1032 
     82 H82       -74.8452   31.7894  -72.4208 H         1 UNK         0.1032 
     83 H83       -73.1762   32.8598  -73.8025 H         1 UNK         0.0461 
     84 H84       -70.6365   30.5520  -73.8438 H         1 UNK         0.3453 
     85 H85       -69.4744   31.5609  -73.0153 H         1 UNK         0.3453 
     86 H86       -73.3594   29.9627  -73.8692 H         1 UNK         0.2984 
     87 H87       -73.9787   29.5901  -76.6892 H         1 UNK         0.0554 
     88 H88       -72.3580   30.5107  -78.3177 H         1 UNK         0.0847 
     89 H89       -72.2294   28.7627  -78.2760 H         1 UNK         0.0847 
     90 H90       -71.0190   29.7542  -77.4654 H         1 UNK         0.0847 
     91 H91       -73.4251   27.7159  -75.6695 H         1 UNK         0.3141 
     92 H92       -70.4895   26.4414  -74.0754 H         1 UNK         0.0743 
     93 H93       -72.0524   27.3279  -72.3569 H         1 UNK         0.0784 
     94 H94       -73.4386   26.8011  -73.2980 H         1 UNK         0.0784 
     95 H95       -72.3264   25.6138  -72.6220 H         1 UNK         0.0784 
     96 H96       -72.9878   25.5948  -75.4579 H         1 UNK         0.3213 
     97 H97       -71.2407   23.9746  -78.0524 H         1 UNK         0.0855 
     98 H98       -72.5843   22.5447  -75.6922 H         1 UNK         0.0814 
     99 H99       -70.9616   22.2220  -76.2892 H         1 UNK         0.0814 
    100 H100      -72.3500   21.8807  -77.3085 H         1 UNK         0.0814 
    101 H101      -73.9890   23.9399  -77.1449 H         1 UNK         0.3105 
    102 H102      -74.9631   27.0201  -78.4759 H         1 UNK         0.0547 
    103 H103      -76.5403   25.8045  -79.9587 H         1 UNK         0.0837 
    104 H104      -75.5662   24.3406  -79.8435 H         1 UNK         0.0837 
    105 H105      -74.9251   25.7684  -80.6463 H         1 UNK         0.0837 
    106 H106      -76.5775   24.8684  -77.6238 H         1 UNK         0.3020 
    107 H107      -75.8643   24.6304  -74.3022 H         1 UNK         0.1245 
    108 H108      -78.1070   26.5964  -74.9787 H         1 UNK         0.0781 
    109 H109      -76.7533   26.9490  -73.9531 H         1 UNK         0.0781 
    110 H110      -76.3382   25.7485  -71.5274 H         1 UNK         0.0836 
    111 H111      -77.7862   25.7841  -70.5519 H         1 UNK         0.0836 
    112 H112      -78.3458   24.1861  -75.6598 H         1 UNK         0.3022 
    113 H113      -77.4158   21.3699  -77.5001 H         1 UNK         0.0747 
    114 H114      -78.7889   19.9169  -76.0173 H         1 UNK         0.0793 
    115 H115      -77.2157   20.2047  -75.2953 H         1 UNK         0.0793 
    116 H116      -78.6218   21.0707  -74.6922 H         1 UNK         0.0793 
    117 H117      -79.9645   22.1422  -76.4750 H         1 UNK         0.3047 
    118 H118      -80.6341   24.8756  -78.5787 H         1 UNK         0.0822 
    119 H119      -82.5088   23.4846  -79.4256 H         1 UNK         0.0807 
    120 H120      -81.6985   22.0129  -78.8862 H         1 UNK         0.0807 
    121 H121      -81.0017   22.9860  -80.1740 H         1 UNK         0.0807 
    122 H122      -82.3154   23.3369  -76.8609 H         1 UNK         0.2946 
    123 H123      -83.0561   24.4897  -74.8963 H         1 UNK         0.1144 
    124 H124      -80.5361   23.2671  -73.6184 H         1 UNK         0.0793 
    125 H125      -81.7871   22.3828  -74.4826 H         1 UNK         0.0793 
    126 H126      -82.1634   23.1526  -72.9526 H         1 UNK         0.0793 
    127 H127      -80.9807   25.6466  -73.1216 H         1 UNK         0.2896 
@<TRIPOS>BOND
     1    1    2 1    
     2    1   67 1    
     3    1   68 1    
     4    1   69 1    
     5    2    3 2    
     6    2    4 am   BACKBONE|DICT|INTERRES
     7    4    5 1    
     8    4   70 1    
     9    5    6 1    
    10    5   65 1    
    11    5   71 1    
    12    6    7 1    
    13    6   72 1    
    14    6   73 1    
    15    7    8 1    
    16    8    9 1    
    17    8   74 1    
    18    8   75 1    
    19    9   10 ar   
    20    9   14 ar   
    21   10   11 ar   
    22   10   76 1    
    23   11   12 ar   
    24   11   48 1    
    25   12   13 ar   
    26   12   77 1    
    27   13   14 ar   
    28   13   15 1    
    29   14   78 1    
    30   15   16 1    
    31   15   79 1    
    32   15   80 1    
    33   16   17 1    
    34   17   18 1    
    35   17   81 1    
    36   17   82 1    
    37   18   19 1    
    38   18   22 1    
    39   18   83 1    
    40   19   20 am   BACKBONE|DICT|INTERRES
    41   19   21 2    
    42   20   84 1    
    43   20   85 1    
    44   22   23 am   BACKBONE|DICT|INTERRES
    45   22   86 1    
    46   23   24 2    
    47   23   25 1    
    48   25   26 1    
    49   25   27 1    
    50   25   87 1    
    51   26   88 1    
    52   26   89 1    
    53   26   90 1    
    54   27   28 am   BACKBONE|DICT|INTERRES
    55   27   91 1    
    56   28   29 2    
    57   28   30 1    
    58   30   31 1    
    59   30   32 1    
    60   30   92 1    
    61   31   93 1    
    62   31   94 1    
    63   31   95 1    
    64   32   33 am   BACKBONE|DICT|INTERRES
    65   32   96 1    
    66   33   34 2    
    67   33   35 1    
    68   35   36 1    
    69   35   37 1    
    70   35   97 1    
    71   36   98 1    
    72   36   99 1    
    73   36  100 1    
    74   37   38 am   BACKBONE|DICT|INTERRES
    75   37  101 1    
    76   38   39 2    
    77   38   40 1    
    78   40   41 1    
    79   40   42 1    
    80   40  102 1    
    81   41  103 1    
    82   41  104 1    
    83   41  105 1    
    84   42   43 am   BACKBONE|DICT|INTERRES
    85   42  106 1    
    86   43   44 2    
    87   43   45 1    
    88   45   46 1    
    89   45   49 1    
    90   45  107 1    
    91   46   47 1    
    92   46  108 1    
    93   46  109 1    
    94   47   48 1    
    95   48  110 1    
    96   48  111 1    
    97   49   50 am   BACKBONE|DICT|INTERRES
    98   49  112 1    
    99   50   51 2    
   100   50   52 1    
   101   52   53 1    
   102   52   54 1    
   103   52  113 1    
   104   53  114 1    
   105   53  115 1    
   106   53  116 1    
   107   54   55 am   BACKBONE|DICT|INTERRES
   108   54  117 1    
   109   55   56 2    
   110   55   57 1    
   111   57   58 1    
   112   57   59 1    
   113   57  118 1    
   114   58  119 1    
   115   58  120 1    
   116   58  121 1    
   117   59   60 am   BACKBONE|DICT|INTERRES
   118   59  122 1    
   119   60   61 2    
   120   60   62 1    
   121   62   63 1    
   122   62   64 1    
   123   62  123 1    
   124   63  124 1    
   125   63  125 1    
   126   63  126 1    
   127   64   65 am   BACKBONE|DICT|INTERRES
   128   64  127 1    
   129   65   66 2    
@<TRIPOS>SUBSTRUCTURE
     1 UNK         1 GROUP             0       ****    0 ROOT    
