@<TRIPOS>MOLECULE
3R135
127   129    1
SMALL
USER_CHARGES


@<TRIPOS>ATOM
      1 CA        -84.4090   25.9484  -74.5894 C.3       0 UNK        -0.1998 
      2 C         -83.2683   26.9529  -74.5322 C.2       0 UNK         0.4909 
      3 O         -82.8355   27.4477  -75.5737 O.2       0 UNK        -0.5240 
      4 N         -82.7746   27.2583  -73.3244 N.am      1 UNK        -0.4739 
      5 CA        -81.6104   28.1213  -73.0975 C.3       1 UNK         0.0864 
      6 C6        -81.4663   28.4871  -71.6001 C.3       11 UNK        -0.0881 
      7 S7        -80.3336   29.8929  -71.3126 S.3       11 UNK        -0.2682 
      8 C8        -79.1742   29.2171  -70.0787 C.3       11 UNK         0.0289 
      9 C9        -78.0759   28.3679  -70.7061 C.ar      11 UNK        -0.0687 
     10 C10       -78.2498   26.9899  -70.8650 C.ar      11 UNK        -0.0823 
     11 C11       -77.2421   26.1931  -71.4185 C.ar      11 UNK        -0.0830 
     12 C12       -76.0322   26.7948  -71.7854 C.ar      11 UNK        -0.1021 
     13 C13       -75.8451   28.1716  -71.6380 C.ar      11 UNK        -0.0753 
     14 C14       -76.8711   28.9557  -71.1033 C.ar      11 UNK        -0.0933 
     15 C15       -74.5288   28.7997  -72.0627 C.3       11 UNK         0.0166 
     16 S16       -74.5126   29.1204  -73.8544 S.3       11 UNK        -0.2615 
     17 C17       -74.5581   30.9471  -73.9126 C.3       11 UNK        -0.0865 
     18 CA        -73.7853   31.5216  -75.1358 C.3       10 UNK         0.0862 
     19 C         -73.9273   33.0694  -75.2633 C.2       10 UNK         0.5551 
     20 N         -72.9278   33.7829  -75.7675 N.am      10 UNK        -0.7319 
     21 O         -74.9688   33.6310  -74.9323 O.2       10 UNK        -0.5018 
     22 N         -72.4052   31.0079  -75.2361 N.am      10 UNK        -0.4509 
     23 C         -71.4146   31.2004  -74.3534 C.2       10 UNK         0.4899 
     24 O         -71.4971   31.9264  -73.3613 O.2       10 UNK        -0.4839 
     25 CA        -70.1260   30.4039  -74.6363 C.3       9 UNK         0.0222 
     26 CB        -68.9981   30.6802  -73.6183 C.3       9 UNK        -0.1966 
     27 N         -70.4076   28.9650  -74.7557 N.am      9 UNK        -0.4218 
     28 C         -70.8909   28.1493  -73.8039 C.2       9 UNK         0.5020 
     29 O         -71.0697   28.4757  -72.6298 O.2       9 UNK        -0.5274 
     30 CA        -71.2839   26.7431  -74.2769 C.3       8 UNK         0.0270 
     31 CB        -71.7870   25.8240  -73.1442 C.3       8 UNK        -0.1976 
     32 N         -72.3096   26.8643  -75.3132 N.am      8 UNK        -0.4313 
     33 C         -72.4673   26.0103  -76.3282 C.2       8 UNK         0.5041 
     34 O         -71.7604   25.0146  -76.5042 O.2       8 UNK        -0.5577 
     35 CA        -73.5813   26.3208  -77.3339 C.3       7 UNK         0.0284 
     36 CB        -73.0027   26.9962  -78.5930 C.3       7 UNK        -0.1958 
     37 N         -74.2305   25.0546  -77.6538 N.am      7 UNK        -0.4454 
     38 C         -75.3520   24.8653  -78.3550 C.2       7 UNK         0.5089 
     39 O         -75.9478   25.7534  -78.9652 O.2       7 UNK        -0.5125 
     40 CA        -75.9393   23.4416  -78.3296 C.3       6 UNK         0.0408 
     41 CB        -75.0106   22.4070  -78.9968 C.3       6 UNK        -0.1791 
     42 N         -76.3480   23.0479  -76.9743 N.am      6 UNK        -0.4762 
     43 C         -75.5790   22.8282  -75.8932 C.2       6 UNK         0.5007 
     44 O         -74.3553   22.7032  -75.9513 O.2       6 UNK        -0.5032 
     45 CA        -76.2690   22.7972  -74.5097 C.3       5 UNK         0.0783 
     46 C46       -75.6020   23.8218  -73.5530 C.3       11 UNK        -0.0857 
     47 S47       -76.0941   23.5986  -71.8084 S.3       11 UNK        -0.2512 
     48 C48       -77.5378   24.7081  -71.6381 C.3       11 UNK         0.0225 
     49 N         -77.6972   23.0883  -74.6478 N.am      5 UNK        -0.4615 
     50 C         -78.7001   22.2104  -74.5357 C.2       4 UNK         0.5053 
     51 O         -78.5428   21.0236  -74.2502 O.2       4 UNK        -0.5105 
     52 CA        -80.1230   22.7407  -74.8059 C.3       4 UNK         0.0263 
     53 CB        -80.8879   22.9484  -73.4887 C.3       4 UNK        -0.1981 
     54 N         -80.1356   23.9879  -75.5807 N.am      4 UNK        -0.4224 
     55 C         -79.8096   24.0624  -76.8814 C.2       3 UNK         0.4895 
     56 O         -79.5242   23.0788  -77.5640 O.2       3 UNK        -0.5091 
     57 CA        -79.7286   25.4561  -77.5293 C.3       3 UNK         0.0250 
     58 CB        -81.0349   25.7780  -78.2716 C.3       3 UNK        -0.1996 
     59 N         -79.4213   26.5403  -76.5938 N.am      3 UNK        -0.4254 
     60 C         -78.3063   26.6345  -75.8532 C.2       2 UNK         0.5004 
     61 O         -77.4082   25.7951  -75.8535 O.2       2 UNK        -0.5226 
     62 CA        -78.2062   27.8388  -74.9041 C.3       2 UNK         0.0269 
     63 CB        -77.5817   29.0358  -75.6374 C.3       2 UNK        -0.1926 
     64 N         -79.4846   28.2515  -74.3142 N.am      2 UNK        -0.4687 
     65 C         -80.3369   27.4540  -73.6542 C.2       1 UNK         0.5165 
     66 O         -80.1653   26.2429  -73.4903 O.2       1 UNK        -0.5079 
     67 H67       -84.1119   25.0795  -75.1761 H         1 UNK         0.0900 
     68 H68       -85.2815   26.3979  -75.0625 H         1 UNK         0.0900 
     69 H69       -84.6998   25.6045  -73.5970 H         1 UNK         0.0900 
     70 H70       -83.1498   26.8008  -72.5060 H         1 UNK         0.2959 
     71 H71       -81.7890   29.0424  -73.6574 H         1 UNK         0.1079 
     72 H72       -82.4376   28.7862  -71.2027 H         1 UNK         0.0837 
     73 H73       -81.1666   27.6184  -71.0130 H         1 UNK         0.0837 
     74 H74       -78.7230   30.0513  -69.5391 H         1 UNK         0.0685 
     75 H75       -79.7223   28.6421  -69.3307 H         1 UNK         0.0685 
     76 H76       -79.1837   26.5326  -70.5702 H         1 UNK         0.1434 
     77 H77       -75.2290   26.2086  -72.2046 H         1 UNK         0.1329 
     78 H78       -76.7293   30.0217  -70.9896 H         1 UNK         0.1335 
     79 H79       -74.3415   29.7114  -71.4948 H         1 UNK         0.0680 
     80 H80       -73.7065   28.1276  -71.8169 H         1 UNK         0.0680 
     81 H81       -74.1448   31.3621  -72.9925 H         1 UNK         0.1032 
     82 H82       -75.6051   31.2533  -73.9373 H         1 UNK         0.1032 
     83 H83       -74.2871   31.1387  -76.0253 H         1 UNK         0.0461 
     84 H84       -73.0283   34.7817  -75.8578 H         1 UNK         0.3453 
     85 H85       -72.0718   33.3323  -76.0479 H         1 UNK         0.3453 
     86 H86       -72.2234   30.4217  -76.0367 H         1 UNK         0.2984 
     87 H87       -69.7675   30.7313  -75.6134 H         1 UNK         0.0554 
     88 H88       -68.0988   30.1131  -73.8582 H         1 UNK         0.0847 
     89 H89       -69.2928   30.4262  -72.5997 H         1 UNK         0.0847 
     90 H90       -68.7254   31.7362  -73.6196 H         1 UNK         0.0847 
     91 H91       -70.2979   28.5777  -75.6832 H         1 UNK         0.3141 
     92 H92       -70.3820   26.2964  -74.7015 H         1 UNK         0.0743 
     93 H93       -72.7180   26.1890  -72.7116 H         1 UNK         0.0784 
     94 H94       -71.9653   24.8116  -73.5073 H         1 UNK         0.0784 
     95 H95       -71.0540   25.7543  -72.3396 H         1 UNK         0.0784 
     96 H96       -72.9349   27.6557  -75.2177 H         1 UNK         0.3213 
     97 H97       -74.3206   26.9769  -76.8687 H         1 UNK         0.0855 
     98 H98       -72.3046   26.3400  -79.1142 H         1 UNK         0.0814 
     99 H99       -72.4632   27.9079  -78.3339 H         1 UNK         0.0814 
    100 H100      -73.7854   27.2786  -79.2966 H         1 UNK         0.0814 
    101 H101      -73.8407   24.2530  -77.1623 H         1 UNK         0.3105 
    102 H102      -76.8609   23.4696  -78.9134 H         1 UNK         0.0547 
    103 H103      -74.8165   22.6788  -80.0350 H         1 UNK         0.0837 
    104 H104      -74.0431   22.3294  -78.5011 H         1 UNK         0.0837 
    105 H105      -75.4636   21.4158  -79.0013 H         1 UNK         0.0837 
    106 H106      -77.3440   23.1182  -76.8107 H         1 UNK         0.3020 
    107 H107      -76.1205   21.7915  -74.1100 H         1 UNK         0.1245 
    108 H108      -75.8179   24.8402  -73.8789 H         1 UNK         0.0781 
    109 H109      -74.5146   23.7265  -73.5747 H         1 UNK         0.0781 
    110 H110      -78.1756   24.6156  -72.5154 H         1 UNK         0.0836 
    111 H111      -78.1274   24.3381  -70.7981 H         1 UNK         0.0836 
    112 H112      -77.9073   24.0447  -74.9148 H         1 UNK         0.3022 
    113 H113      -80.6492   21.9781  -75.3842 H         1 UNK         0.0747 
    114 H114      -81.9059   23.2936  -73.6702 H         1 UNK         0.0793 
    115 H115      -80.9569   22.0153  -72.9280 H         1 UNK         0.0793 
    116 H116      -80.3977   23.6775  -72.8439 H         1 UNK         0.0793 
    117 H117      -80.3061   24.8437  -75.0617 H         1 UNK         0.3047 
    118 H118      -78.9177   25.4238  -78.2606 H         1 UNK         0.0822 
    119 H119      -80.9665   26.7258  -78.8058 H         1 UNK         0.0807 
    120 H120      -81.8830   25.8372  -77.5885 H         1 UNK         0.0807 
    121 H121      -81.2645   25.0079  -79.0096 H         1 UNK         0.0807 
    122 H122      -80.1238   27.2591  -76.4871 H         1 UNK         0.2946 
    123 H123      -77.5457   27.5510  -74.0842 H         1 UNK         0.1144 
    124 H124      -77.4028   29.8666  -74.9553 H         1 UNK         0.0793 
    125 H125      -78.2197   29.3946  -76.4458 H         1 UNK         0.0793 
    126 H126      -76.6203   28.7655  -76.0767 H         1 UNK         0.0793 
    127 H127      -79.7057   29.2344  -74.3816 H         1 UNK         0.2896 
@<TRIPOS>BOND
     1    1    2 1    
     2    1   67 1    
     3    1   68 1    
     4    1   69 1    
     5    2    3 2    
     6    2    4 am   BACKBONE|DICT|INTERRES
     7    4    5 1    
     8    4   70 1    
     9    5    6 1    
    10    5   65 1    
    11    5   71 1    
    12    6    7 1    
    13    6   72 1    
    14    6   73 1    
    15    7    8 1    
    16    8    9 1    
    17    8   74 1    
    18    8   75 1    
    19    9   10 ar   
    20    9   14 ar   
    21   10   11 ar   
    22   10   76 1    
    23   11   12 ar   
    24   11   48 1    
    25   12   13 ar   
    26   12   77 1    
    27   13   14 ar   
    28   13   15 1    
    29   14   78 1    
    30   15   16 1    
    31   15   79 1    
    32   15   80 1    
    33   16   17 1    
    34   17   18 1    
    35   17   81 1    
    36   17   82 1    
    37   18   19 1    
    38   18   22 1    
    39   18   83 1    
    40   19   20 am   BACKBONE|DICT|INTERRES
    41   19   21 2    
    42   20   84 1    
    43   20   85 1    
    44   22   23 am   BACKBONE|DICT|INTERRES
    45   22   86 1    
    46   23   24 2    
    47   23   25 1    
    48   25   26 1    
    49   25   27 1    
    50   25   87 1    
    51   26   88 1    
    52   26   89 1    
    53   26   90 1    
    54   27   28 am   BACKBONE|DICT|INTERRES
    55   27   91 1    
    56   28   29 2    
    57   28   30 1    
    58   30   31 1    
    59   30   32 1    
    60   30   92 1    
    61   31   93 1    
    62   31   94 1    
    63   31   95 1    
    64   32   33 am   BACKBONE|DICT|INTERRES
    65   32   96 1    
    66   33   34 2    
    67   33   35 1    
    68   35   36 1    
    69   35   37 1    
    70   35   97 1    
    71   36   98 1    
    72   36   99 1    
    73   36  100 1    
    74   37   38 am   BACKBONE|DICT|INTERRES
    75   37  101 1    
    76   38   39 2    
    77   38   40 1    
    78   40   41 1    
    79   40   42 1    
    80   40  102 1    
    81   41  103 1    
    82   41  104 1    
    83   41  105 1    
    84   42   43 am   BACKBONE|DICT|INTERRES
    85   42  106 1    
    86   43   44 2    
    87   43   45 1    
    88   45   46 1    
    89   45   49 1    
    90   45  107 1    
    91   46   47 1    
    92   46  108 1    
    93   46  109 1    
    94   47   48 1    
    95   48  110 1    
    96   48  111 1    
    97   49   50 am   BACKBONE|DICT|INTERRES
    98   49  112 1    
    99   50   51 2    
   100   50   52 1    
   101   52   53 1    
   102   52   54 1    
   103   52  113 1    
   104   53  114 1    
   105   53  115 1    
   106   53  116 1    
   107   54   55 am   BACKBONE|DICT|INTERRES
   108   54  117 1    
   109   55   56 2    
   110   55   57 1    
   111   57   58 1    
   112   57   59 1    
   113   57  118 1    
   114   58  119 1    
   115   58  120 1    
   116   58  121 1    
   117   59   60 am   BACKBONE|DICT|INTERRES
   118   59  122 1    
   119   60   61 2    
   120   60   62 1    
   121   62   63 1    
   122   62   64 1    
   123   62  123 1    
   124   63  124 1    
   125   63  125 1    
   126   63  126 1    
   127   64   65 am   BACKBONE|DICT|INTERRES
   128   64  127 1    
   129   65   66 2    
@<TRIPOS>SUBSTRUCTURE
     1 UNK         1 GROUP             0       ****    0 ROOT    
