@<TRIPOS>MOLECULE
3R135
127   129    1
SMALL
USER_CHARGES


@<TRIPOS>ATOM
      1 CA        -82.4944   32.6698  -72.3655 C.3       0 UNK        -0.1998 
      2 C         -81.6046   31.4750  -72.6742 C.2       0 UNK         0.4909 
      3 O         -80.5233   31.6463  -73.2380 O.2       0 UNK        -0.5240 
      4 N         -82.0461   30.2688  -72.2987 N.am      1 UNK        -0.4739 
      5 CA        -81.3437   29.0070  -72.5554 C.3       1 UNK         0.0864 
      6 C6        -81.8429   27.8696  -71.6254 C.3       11 UNK        -0.0881 
      7 S7        -81.8481   28.2326  -69.8300 S.3       11 UNK        -0.2682 
      8 C8        -80.2637   29.0914  -69.5222 C.3       11 UNK         0.0289 
      9 C9        -79.0439   28.3443  -70.0517 C.ar      11 UNK        -0.0687 
     10 C10       -78.8839   26.9727  -69.8292 C.ar      11 UNK        -0.0823 
     11 C11       -77.7902   26.2886  -70.3661 C.ar      11 UNK        -0.0830 
     12 C12       -76.8292   26.9919  -71.0993 C.ar      11 UNK        -0.1021 
     13 C13       -76.9656   28.3662  -71.3089 C.ar      11 UNK        -0.0753 
     14 C14       -78.0712   29.0366  -70.7796 C.ar      11 UNK        -0.0933 
     15 C15       -75.9256   29.1332  -72.1082 C.3       11 UNK         0.0166 
     16 S16       -76.4325   29.3171  -73.8449 S.3       11 UNK        -0.2615 
     17 C17       -75.2551   30.6042  -74.3805 C.3       11 UNK        -0.0865 
     18 CA        -74.9693   30.5837  -75.9043 C.3       10 UNK         0.0862 
     19 C         -74.0911   31.8079  -76.3055 C.2       10 UNK         0.5551 
     20 N         -72.8485   31.6334  -76.7422 N.am      10 UNK        -0.7319 
     21 O         -74.5523   32.9431  -76.2166 O.2       10 UNK        -0.5018 
     22 N         -74.4405   29.2824  -76.3392 N.am      10 UNK        -0.4509 
     23 C         -74.3418   28.8789  -77.6119 C.2       10 UNK         0.4899 
     24 O         -74.8047   29.5067  -78.5652 O.2       10 UNK        -0.4839 
     25 CA        -73.5905   27.5542  -77.8552 C.3       9 UNK         0.0222 
     26 CB        -72.9965   27.4619  -79.2764 C.3       9 UNK        -0.1966 
     27 N         -72.5637   27.2583  -76.8470 N.am      9 UNK        -0.4218 
     28 C         -71.4900   28.0065  -76.5368 C.2       9 UNK         0.5020 
     29 O         -71.2596   29.1097  -77.0347 O.2       9 UNK        -0.5274 
     30 CA        -70.5195   27.4619  -75.4690 C.3       8 UNK         0.0270 
     31 CB        -70.7179   28.2127  -74.1411 C.3       8 UNK        -0.1976 
     32 N         -70.6548   26.0238  -75.2256 N.am      8 UNK        -0.4313 
     33 C         -70.3701   25.0559  -76.1080 C.2       8 UNK         0.5041 
     34 O         -69.8217   25.2606  -77.1915 O.2       8 UNK        -0.5577 
     35 CA        -70.7936   23.6200  -75.7397 C.3       7 UNK         0.0284 
     36 CB        -69.5630   22.7797  -75.3591 C.3       7 UNK        -0.1958 
     37 N         -71.7931   23.5189  -74.6657 N.am      7 UNK        -0.4454 
     38 C         -73.0336   24.0267  -74.6903 C.2       7 UNK         0.5089 
     39 O         -73.4785   24.7260  -75.6025 O.2       7 UNK        -0.5125 
     40 CA        -73.8866   23.7675  -73.4466 C.3       6 UNK         0.0408 
     41 CB        -73.6343   24.8514  -72.3825 C.3       6 UNK        -0.1791 
     42 N         -75.3040   23.7465  -73.8042 N.am      6 UNK        -0.4762 
     43 C         -76.2388   23.0548  -73.1382 C.2       6 UNK         0.5007 
     44 O         -75.9812   22.3309  -72.1749 O.2       6 UNK        -0.5032 
     45 CA        -77.7031   23.1810  -73.6096 C.3       5 UNK         0.0783 
     46 C46       -78.4559   24.3037  -72.8556 C.3       11 UNK        -0.0857 
     47 S47       -78.9063   23.8662  -71.1415 S.3       11 UNK        -0.2512 
     48 C48       -77.6632   24.7847  -70.1726 C.3       11 UNK         0.0225 
     49 N         -77.8193   23.3651  -75.0584 N.am      5 UNK        -0.4615 
     50 C         -77.6497   22.3889  -75.9622 C.2       4 UNK         0.5053 
     51 O         -77.3064   21.2447  -75.6639 O.2       4 UNK        -0.5105 
     52 CA        -77.9496   22.7104  -77.4402 C.3       4 UNK         0.0263 
     53 CB        -79.2440   22.0101  -77.8872 C.3       4 UNK        -0.1981 
     54 N         -78.0765   24.1440  -77.7080 N.am      4 UNK        -0.4224 
     55 C         -77.0432   24.9858  -77.8381 C.2       3 UNK         0.4895 
     56 O         -75.8694   24.6207  -77.8456 O.2       3 UNK        -0.5091 
     57 CA        -77.3655   26.4874  -77.9653 C.3       3 UNK         0.0250 
     58 CB        -77.2029   26.9554  -79.4204 C.3       3 UNK        -0.1996 
     59 N         -78.6955   26.8702  -77.4757 N.am      3 UNK        -0.4254 
     60 C         -79.0778   26.7967  -76.1941 C.2       2 UNK         0.5004 
     61 O         -78.3711   26.3397  -75.2936 O.2       2 UNK        -0.5226 
     62 CA        -80.5073   27.2386  -75.8759 C.3       2 UNK         0.0269 
     63 CB        -81.4805   26.0527  -76.0210 C.3       2 UNK        -0.1926 
     64 N         -80.5457   27.7561  -74.5106 N.am      2 UNK        -0.4687 
     65 C         -81.4809   28.5851  -74.0336 C.2       1 UNK         0.5165 
     66 O         -82.4411   28.9800  -74.7019 O.2       1 UNK        -0.5079 
     67 H67       -82.7743   33.1769  -73.2884 H         1 UNK         0.0900 
     68 H68       -83.4082   32.3750  -71.8497 H         1 UNK         0.0900 
     69 H69       -81.9625   33.3803  -71.7332 H         1 UNK         0.0900 
     70 H70       -82.9481   30.1814  -71.8532 H         1 UNK         0.2959 
     71 H71       -80.2814   29.1728  -72.3778 H         1 UNK         0.1079 
     72 H72       -81.2357   26.9740  -71.7732 H         1 UNK         0.0837 
     73 H73       -82.8615   27.5830  -71.8951 H         1 UNK         0.0837 
     74 H74       -80.1466   29.2297  -68.4468 H         1 UNK         0.0685 
     75 H75       -80.3217   30.0920  -69.9529 H         1 UNK         0.0685 
     76 H76       -79.6302   26.4277  -69.2673 H         1 UNK         0.1434 
     77 H77       -75.9838   26.4682  -71.5222 H         1 UNK         0.1329 
     78 H78       -78.1815   30.0986  -70.9541 H         1 UNK         0.1335 
     79 H79       -74.9592   28.6281  -72.0649 H         1 UNK         0.0680 
     80 H80       -75.7806   30.1192  -71.6635 H         1 UNK         0.0680 
     81 H81       -74.3214   30.4930  -73.8256 H         1 UNK         0.1032 
     82 H82       -75.6710   31.5690  -74.0826 H         1 UNK         0.1032 
     83 H83       -75.9240   30.7220  -76.4158 H         1 UNK         0.0461 
     84 H84       -72.3015   32.4399  -76.9974 H         1 UNK         0.3453 
     85 H85       -72.4456   30.7064  -76.8319 H         1 UNK         0.3453 
     86 H86       -74.0512   28.6965  -75.6168 H         1 UNK         0.2984 
     87 H87       -74.3297   26.7612  -77.7589 H         1 UNK         0.0554 
     88 H88       -72.2773   28.2594  -79.4659 H         1 UNK         0.0847 
     89 H89       -73.7761   27.5401  -80.0349 H         1 UNK         0.0847 
     90 H90       -72.4903   26.5092  -79.4322 H         1 UNK         0.0847 
     91 H91       -72.6944   26.3751  -76.3595 H         1 UNK         0.3141 
     92 H92       -69.5048   27.6500  -75.8258 H         1 UNK         0.0743 
     93 H93       -70.5953   29.2883  -74.2782 H         1 UNK         0.0784 
     94 H94       -71.7140   28.0493  -73.7273 H         1 UNK         0.0784 
     95 H95       -69.9875   27.8998  -73.3947 H         1 UNK         0.0784 
     96 H96       -71.0825   25.7494  -74.3539 H         1 UNK         0.3213 
     97 H97       -71.2394   23.1856  -76.6371 H         1 UNK         0.0855 
     98 H98       -69.0877   23.1486  -74.4493 H         1 UNK         0.0814 
     99 H99       -68.8124   22.8043  -76.1507 H         1 UNK         0.0814 
    100 H100      -69.8275   21.7338  -75.2020 H         1 UNK         0.0814 
    101 H101      -71.5173   22.9799  -73.8566 H         1 UNK         0.3105 
    102 H102      -73.6009   22.7936  -73.0429 H         1 UNK         0.0547 
    103 H103      -74.2043   24.6564  -71.4742 H         1 UNK         0.0837 
    104 H104      -73.9088   25.8426  -72.7459 H         1 UNK         0.0837 
    105 H105      -72.5824   24.8876  -72.0966 H         1 UNK         0.0837 
    106 H106      -75.5518   24.2737  -74.6330 H         1 UNK         0.3020 
    107 H107      -78.1911   22.2333  -73.3686 H         1 UNK         0.1245 
    108 H108      -79.3975   24.5179  -73.3640 H         1 UNK         0.0781 
    109 H109      -77.8959   25.2381  -72.8900 H         1 UNK         0.0781 
    110 H110      -76.6640   24.4397  -70.4417 H         1 UNK         0.0836 
    111 H111      -77.7920   24.5457  -69.1161 H         1 UNK         0.0836 
    112 H112      -78.0645   24.2996  -75.3669 H         1 UNK         0.3022 
    113 H113      -77.1241   22.3123  -78.0344 H         1 UNK         0.0747 
    114 H114      -79.4408   22.1776  -78.9464 H         1 UNK         0.0793 
    115 H115      -79.1760   20.9311  -77.7402 H         1 UNK         0.0793 
    116 H116      -80.1095   22.3613  -77.3238 H         1 UNK         0.0793 
    117 H117      -79.0110   24.5241  -77.7331 H         1 UNK         0.3047 
    118 H118      -76.6375   27.0178  -77.3496 H         1 UNK         0.0822 
    119 H119      -77.3055   28.0378  -79.5025 H         1 UNK         0.0807 
    120 H120      -77.9394   26.4938  -80.0790 H         1 UNK         0.0807 
    121 H121      -76.2151   26.6987  -79.8055 H         1 UNK         0.0807 
    122 H122      -79.3416   27.2338  -78.1623 H         1 UNK         0.2946 
    123 H123      -80.7896   28.0353  -76.5684 H         1 UNK         0.1144 
    124 H124      -81.2308   25.2417  -75.3354 H         1 UNK         0.0793 
    125 H125      -81.4584   25.6458  -77.0326 H         1 UNK         0.0793 
    126 H126      -82.5089   26.3533  -75.8204 H         1 UNK         0.0793 
    127 H127      -79.7558   27.4804  -73.9386 H         1 UNK         0.2896 
@<TRIPOS>BOND
     1    1    2 1    
     2    1   67 1    
     3    1   68 1    
     4    1   69 1    
     5    2    3 2    
     6    2    4 am   BACKBONE|DICT|INTERRES
     7    4    5 1    
     8    4   70 1    
     9    5    6 1    
    10    5   65 1    
    11    5   71 1    
    12    6    7 1    
    13    6   72 1    
    14    6   73 1    
    15    7    8 1    
    16    8    9 1    
    17    8   74 1    
    18    8   75 1    
    19    9   10 ar   
    20    9   14 ar   
    21   10   11 ar   
    22   10   76 1    
    23   11   12 ar   
    24   11   48 1    
    25   12   13 ar   
    26   12   77 1    
    27   13   14 ar   
    28   13   15 1    
    29   14   78 1    
    30   15   16 1    
    31   15   79 1    
    32   15   80 1    
    33   16   17 1    
    34   17   18 1    
    35   17   81 1    
    36   17   82 1    
    37   18   19 1    
    38   18   22 1    
    39   18   83 1    
    40   19   20 am   BACKBONE|DICT|INTERRES
    41   19   21 2    
    42   20   84 1    
    43   20   85 1    
    44   22   23 am   BACKBONE|DICT|INTERRES
    45   22   86 1    
    46   23   24 2    
    47   23   25 1    
    48   25   26 1    
    49   25   27 1    
    50   25   87 1    
    51   26   88 1    
    52   26   89 1    
    53   26   90 1    
    54   27   28 am   BACKBONE|DICT|INTERRES
    55   27   91 1    
    56   28   29 2    
    57   28   30 1    
    58   30   31 1    
    59   30   32 1    
    60   30   92 1    
    61   31   93 1    
    62   31   94 1    
    63   31   95 1    
    64   32   33 am   BACKBONE|DICT|INTERRES
    65   32   96 1    
    66   33   34 2    
    67   33   35 1    
    68   35   36 1    
    69   35   37 1    
    70   35   97 1    
    71   36   98 1    
    72   36   99 1    
    73   36  100 1    
    74   37   38 am   BACKBONE|DICT|INTERRES
    75   37  101 1    
    76   38   39 2    
    77   38   40 1    
    78   40   41 1    
    79   40   42 1    
    80   40  102 1    
    81   41  103 1    
    82   41  104 1    
    83   41  105 1    
    84   42   43 am   BACKBONE|DICT|INTERRES
    85   42  106 1    
    86   43   44 2    
    87   43   45 1    
    88   45   46 1    
    89   45   49 1    
    90   45  107 1    
    91   46   47 1    
    92   46  108 1    
    93   46  109 1    
    94   47   48 1    
    95   48  110 1    
    96   48  111 1    
    97   49   50 am   BACKBONE|DICT|INTERRES
    98   49  112 1    
    99   50   51 2    
   100   50   52 1    
   101   52   53 1    
   102   52   54 1    
   103   52  113 1    
   104   53  114 1    
   105   53  115 1    
   106   53  116 1    
   107   54   55 am   BACKBONE|DICT|INTERRES
   108   54  117 1    
   109   55   56 2    
   110   55   57 1    
   111   57   58 1    
   112   57   59 1    
   113   57  118 1    
   114   58  119 1    
   115   58  120 1    
   116   58  121 1    
   117   59   60 am   BACKBONE|DICT|INTERRES
   118   59  122 1    
   119   60   61 2    
   120   60   62 1    
   121   62   63 1    
   122   62   64 1    
   123   62  123 1    
   124   63  124 1    
   125   63  125 1    
   126   63  126 1    
   127   64   65 am   BACKBONE|DICT|INTERRES
   128   64  127 1    
   129   65   66 2    
@<TRIPOS>SUBSTRUCTURE
     1 UNK         1 GROUP             0       ****    0 ROOT    
