@<TRIPOS>MOLECULE
3R135
127   129    1
SMALL
USER_CHARGES


@<TRIPOS>ATOM
      1 CA        -84.0182   25.6269  -75.4523 C.3       0 UNK        -0.1998 
      2 C         -82.8772   26.2855  -74.6930 C.2       0 UNK         0.4909 
      3 O         -81.7472   25.8017  -74.7550 O.2       0 UNK        -0.5240 
      4 N         -83.1596   27.3882  -73.9845 N.am      1 UNK        -0.4739 
      5 CA        -82.2024   28.1745  -73.1937 C.3       1 UNK         0.0864 
      6 C6        -81.7529   27.4194  -71.9090 C.3       11 UNK        -0.0881 
      7 S7        -81.3474   28.5746  -70.5617 S.3       11 UNK        -0.2682 
      8 C8        -80.3631   27.5182  -69.4527 C.3       11 UNK         0.0289 
      9 C9        -78.8756   27.5497  -69.7798 C.ar      11 UNK        -0.0687 
     10 C10       -78.1815   26.3685  -70.0642 C.ar      11 UNK        -0.0823 
     11 C11       -76.7984   26.3901  -70.2814 C.ar      11 UNK        -0.0830 
     12 C12       -76.1145   27.6090  -70.2186 C.ar      11 UNK        -0.1021 
     13 C13       -76.8015   28.7990  -69.9651 C.ar      11 UNK        -0.0753 
     14 C14       -78.1786   28.7611  -69.7368 C.ar      11 UNK        -0.0933 
     15 C15       -76.0594   30.1262  -69.9277 C.3       11 UNK         0.0166 
     16 S16       -76.1223   30.9700  -71.5389 S.3       11 UNK        -0.2615 
     17 C17       -75.0241   29.9013  -72.5272 C.3       11 UNK        -0.0865 
     18 CA        -74.5898   30.5387  -73.8740 C.3       10 UNK         0.0862 
     19 C         -73.4062   31.5418  -73.7005 C.2       10 UNK         0.5551 
     20 N         -72.2260   31.2959  -74.2590 N.am      10 UNK        -0.7319 
     21 O         -73.5627   32.5759  -73.0569 O.2       10 UNK        -0.5018 
     22 N         -74.3580   29.4876  -74.8738 N.am      10 UNK        -0.4509 
     23 C         -74.3139   29.6672  -76.2000 C.2       10 UNK         0.4899 
     24 O         -74.6022   30.7264  -76.7586 O.2       10 UNK        -0.4839 
     25 CA        -73.8471   28.4529  -77.0296 C.3       9 UNK         0.0222 
     26 CB        -73.2730   28.8481  -78.4055 C.3       9 UNK        -0.1966 
     27 N         -72.9070   27.5893  -76.3010 N.am      9 UNK        -0.4218 
     28 C         -71.7098   27.9194  -75.7888 C.2       9 UNK         0.5020 
     29 O         -71.2009   29.0351  -75.8992 O.2       9 UNK        -0.5274 
     30 CA        -70.9777   26.8463  -74.9672 C.3       8 UNK         0.0270 
     31 CB        -71.3736   26.9648  -73.4852 C.3       8 UNK        -0.1976 
     32 N         -71.2911   25.4958  -75.4377 N.am      8 UNK        -0.4313 
     33 C         -70.4674   24.7106  -76.1443 C.2       8 UNK         0.5041 
     34 O         -69.3024   25.0035  -76.4177 O.2       8 UNK        -0.5577 
     35 CA        -71.0395   23.3679  -76.6419 C.3       7 UNK         0.0284 
     36 CB        -70.7733   22.2562  -75.6141 C.3       7 UNK        -0.1958 
     37 N         -72.4753   23.4243  -76.9346 N.am      7 UNK        -0.4454 
     38 C         -73.0232   24.1562  -77.9145 C.2       7 UNK         0.5089 
     39 O         -72.3659   24.7732  -78.7528 O.2       7 UNK        -0.5125 
     40 CA        -74.5608   24.2454  -77.9632 C.3       6 UNK         0.0408 
     41 CB        -75.1115   23.2989  -79.0416 C.3       6 UNK        -0.1791 
     42 N         -75.2780   23.9982  -76.7035 N.am      6 UNK        -0.4762 
     43 C         -75.0838   24.6089  -75.5234 C.2       6 UNK         0.5007 
     44 O         -74.1206   25.3421  -75.3014 O.2       6 UNK        -0.5032 
     45 CA        -76.1495   24.3885  -74.4256 C.3       5 UNK         0.0783 
     46 C46       -76.1393   25.5049  -73.3464 C.3       11 UNK        -0.0857 
     47 S47       -74.9452   25.1868  -72.0072 S.3       11 UNK        -0.2512 
     48 C48       -76.0435   25.0908  -70.5523 C.3       11 UNK         0.0225 
     49 N         -77.4767   24.2885  -75.0307 N.am      5 UNK        -0.4615 
     50 C         -78.1142   23.1642  -75.3752 C.2       4 UNK         0.5053 
     51 O         -77.6455   22.0395  -75.2040 O.2       4 UNK        -0.5105 
     52 CA        -79.4944   23.3162  -76.0413 C.3       4 UNK         0.0263 
     53 CB        -80.6023   22.8231  -75.0965 C.3       4 UNK        -0.1981 
     54 N         -79.7824   24.6968  -76.4492 N.am      4 UNK        -0.4224 
     55 C         -79.2518   25.2925  -77.5275 C.2       3 UNK         0.4895 
     56 O         -78.5212   24.7163  -78.3333 O.2       3 UNK        -0.5091 
     57 CA        -79.5552   26.7871  -77.7248 C.3       3 UNK         0.0250 
     58 CB        -80.9343   26.9787  -78.3755 C.3       3 UNK        -0.1996 
     59 N         -79.4874   27.5736  -76.4898 N.am      3 UNK        -0.4254 
     60 C         -78.4012   27.7585  -75.7280 C.2       2 UNK         0.5004 
     61 O         -77.3097   27.2478  -75.9730 O.2       2 UNK        -0.5226 
     62 CA        -78.5435   28.6360  -74.4668 C.3       2 UNK         0.0269 
     63 CB        -78.3051   30.1212  -74.7987 C.3       2 UNK        -0.1926 
     64 N         -79.7930   28.4356  -73.7142 N.am      2 UNK        -0.4687 
     65 C         -81.0543   28.6962  -74.0912 C.2       1 UNK         0.5165 
     66 O         -81.3438   29.2697  -75.1442 O.2       1 UNK        -0.5079 
     67 H67       -83.7960   25.6056  -76.5187 H         1 UNK         0.0900 
     68 H68       -84.1489   24.6003  -75.1115 H         1 UNK         0.0900 
     69 H69       -84.9610   26.1550  -75.3114 H         1 UNK         0.0900 
     70 H70       -84.1005   27.7564  -74.0066 H         1 UNK         0.2959 
     71 H71       -82.7567   29.0641  -72.8890 H         1 UNK         0.1079 
     72 H72       -82.5739   26.8015  -71.5411 H         1 UNK         0.0837 
     73 H73       -80.9348   26.7212  -72.0958 H         1 UNK         0.0837 
     74 H74       -80.7538   26.4996  -69.4730 H         1 UNK         0.0685 
     75 H75       -80.4968   27.8738  -68.4301 H         1 UNK         0.0685 
     76 H76       -78.7146   25.4278  -70.0907 H         1 UNK         0.1434 
     77 H77       -75.0453   27.6316  -70.3789 H         1 UNK         0.1329 
     78 H78       -78.7106   29.6777  -69.5208 H         1 UNK         0.1335 
     79 H79       -76.5053   30.7760  -69.1731 H         1 UNK         0.0680 
     80 H80       -75.0208   29.9800  -69.6268 H         1 UNK         0.0680 
     81 H81       -75.5800   28.9805  -72.7100 H         1 UNK         0.1032 
     82 H82       -74.1543   29.6092  -71.9353 H         1 UNK         0.1032 
     83 H83       -75.4252   31.1333  -74.2471 H         1 UNK         0.0461 
     84 H84       -71.4824   31.9642  -74.1365 H         1 UNK         0.3453 
     85 H85       -72.0639   30.4690  -74.8234 H         1 UNK         0.3453 
     86 H86       -74.0971   28.5815  -74.5162 H         1 UNK         0.2984 
     87 H87       -74.7379   27.8472  -77.2040 H         1 UNK         0.0554 
     88 H88       -74.0178   29.3726  -79.0051 H         1 UNK         0.0847 
     89 H89       -72.9631   27.9692  -78.9713 H         1 UNK         0.0847 
     90 H90       -72.4098   29.5074  -78.3092 H         1 UNK         0.0847 
     91 H91       -73.2805   26.6725  -76.0594 H         1 UNK         0.3141 
     92 H92       -69.9063   27.0400  -75.0514 H         1 UNK         0.0743 
     93 H93       -71.1628   27.9642  -73.1014 H         1 UNK         0.0784 
     94 H94       -72.4364   26.7717  -73.3312 H         1 UNK         0.0784 
     95 H95       -70.8155   26.2581  -72.8709 H         1 UNK         0.0784 
     96 H96       -72.2460   25.1809  -75.2869 H         1 UNK         0.3213 
     97 H97       -70.5184   23.1117  -77.5671 H         1 UNK         0.0855 
     98 H98       -71.2850   22.4465  -74.6698 H         1 UNK         0.0814 
     99 H99       -69.7073   22.1755  -75.3959 H         1 UNK         0.0814 
    100 H100      -71.1001   21.2847  -75.9853 H         1 UNK         0.0814 
    101 H101      -73.0959   22.9441  -76.2994 H         1 UNK         0.3105 
    102 H102      -74.8032   25.2680  -78.2594 H         1 UNK         0.0547 
    103 H103      -74.9500   22.2525  -78.7800 H         1 UNK         0.0837 
    104 H104      -74.6258   23.4735  -80.0028 H         1 UNK         0.0837 
    105 H105      -76.1808   23.4473  -79.1929 H         1 UNK         0.0837 
    106 H106      -76.0921   23.4045  -76.7771 H         1 UNK         0.3020 
    107 H107      -75.9123   23.4372  -73.9438 H         1 UNK         0.1245 
    108 H108      -77.1313   25.5955  -72.9015 H         1 UNK         0.0781 
    109 H109      -75.9321   26.4865  -73.7760 H         1 UNK         0.0781 
    110 H110      -75.4428   24.8466  -69.6753 H         1 UNK         0.0836 
    111 H111      -76.7360   24.2591  -70.6919 H         1 UNK         0.0836 
    112 H112      -77.8919   25.1711  -75.2985 H         1 UNK         0.3022 
    113 H113      -79.5003   22.6831  -76.9310 H         1 UNK         0.0747 
    114 H114      -80.6205   23.3919  -74.1659 H         1 UNK         0.0793 
    115 H115      -81.5857   22.9077  -75.5593 H         1 UNK         0.0793 
    116 H116      -80.4556   21.7744  -74.8347 H         1 UNK         0.0793 
    117 H117      -80.4101   25.2253  -75.8425 H         1 UNK         0.3047 
    118 H118      -78.7989   27.1853  -78.4045 H         1 UNK         0.0822 
    119 H119      -81.1185   28.0267  -78.6126 H         1 UNK         0.0807 
    120 H120      -81.7389   26.6369  -77.7236 H         1 UNK         0.0807 
    121 H121      -81.0082   26.4180  -79.3084 H         1 UNK         0.0807 
    122 H122      -80.3348   28.0536  -76.2003 H         1 UNK         0.2946 
    123 H123      -77.7446   28.3264  -73.7912 H         1 UNK         0.1144 
    124 H124      -78.2711   30.7277  -73.8937 H         1 UNK         0.0793 
    125 H125      -79.0779   30.5297  -75.4495 H         1 UNK         0.0793 
    126 H126      -77.3541   30.2534  -75.3153 H         1 UNK         0.0793 
    127 H127      -79.6773   27.9708  -72.8239 H         1 UNK         0.2896 
@<TRIPOS>BOND
     1    1    2 1    
     2    1   67 1    
     3    1   68 1    
     4    1   69 1    
     5    2    3 2    
     6    2    4 am   BACKBONE|DICT|INTERRES
     7    4    5 1    
     8    4   70 1    
     9    5    6 1    
    10    5   65 1    
    11    5   71 1    
    12    6    7 1    
    13    6   72 1    
    14    6   73 1    
    15    7    8 1    
    16    8    9 1    
    17    8   74 1    
    18    8   75 1    
    19    9   10 ar   
    20    9   14 ar   
    21   10   11 ar   
    22   10   76 1    
    23   11   12 ar   
    24   11   48 1    
    25   12   13 ar   
    26   12   77 1    
    27   13   14 ar   
    28   13   15 1    
    29   14   78 1    
    30   15   16 1    
    31   15   79 1    
    32   15   80 1    
    33   16   17 1    
    34   17   18 1    
    35   17   81 1    
    36   17   82 1    
    37   18   19 1    
    38   18   22 1    
    39   18   83 1    
    40   19   20 am   BACKBONE|DICT|INTERRES
    41   19   21 2    
    42   20   84 1    
    43   20   85 1    
    44   22   23 am   BACKBONE|DICT|INTERRES
    45   22   86 1    
    46   23   24 2    
    47   23   25 1    
    48   25   26 1    
    49   25   27 1    
    50   25   87 1    
    51   26   88 1    
    52   26   89 1    
    53   26   90 1    
    54   27   28 am   BACKBONE|DICT|INTERRES
    55   27   91 1    
    56   28   29 2    
    57   28   30 1    
    58   30   31 1    
    59   30   32 1    
    60   30   92 1    
    61   31   93 1    
    62   31   94 1    
    63   31   95 1    
    64   32   33 am   BACKBONE|DICT|INTERRES
    65   32   96 1    
    66   33   34 2    
    67   33   35 1    
    68   35   36 1    
    69   35   37 1    
    70   35   97 1    
    71   36   98 1    
    72   36   99 1    
    73   36  100 1    
    74   37   38 am   BACKBONE|DICT|INTERRES
    75   37  101 1    
    76   38   39 2    
    77   38   40 1    
    78   40   41 1    
    79   40   42 1    
    80   40  102 1    
    81   41  103 1    
    82   41  104 1    
    83   41  105 1    
    84   42   43 am   BACKBONE|DICT|INTERRES
    85   42  106 1    
    86   43   44 2    
    87   43   45 1    
    88   45   46 1    
    89   45   49 1    
    90   45  107 1    
    91   46   47 1    
    92   46  108 1    
    93   46  109 1    
    94   47   48 1    
    95   48  110 1    
    96   48  111 1    
    97   49   50 am   BACKBONE|DICT|INTERRES
    98   49  112 1    
    99   50   51 2    
   100   50   52 1    
   101   52   53 1    
   102   52   54 1    
   103   52  113 1    
   104   53  114 1    
   105   53  115 1    
   106   53  116 1    
   107   54   55 am   BACKBONE|DICT|INTERRES
   108   54  117 1    
   109   55   56 2    
   110   55   57 1    
   111   57   58 1    
   112   57   59 1    
   113   57  118 1    
   114   58  119 1    
   115   58  120 1    
   116   58  121 1    
   117   59   60 am   BACKBONE|DICT|INTERRES
   118   59  122 1    
   119   60   61 2    
   120   60   62 1    
   121   62   63 1    
   122   62   64 1    
   123   62  123 1    
   124   63  124 1    
   125   63  125 1    
   126   63  126 1    
   127   64   65 am   BACKBONE|DICT|INTERRES
   128   64  127 1    
   129   65   66 2    
@<TRIPOS>SUBSTRUCTURE
     1 UNK         1 GROUP             0       ****    0 ROOT    
