@<TRIPOS>MOLECULE
3R135
127   129    1
SMALL
USER_CHARGES


@<TRIPOS>ATOM
      1 CA        -84.0055   26.4419  -75.4612 C.3       0 UNK        -0.1998 
      2 C         -82.7733   27.3239  -75.3311 C.2       0 UNK         0.4909 
      3 O         -82.1442   27.6505  -76.3381 O.2       0 UNK        -0.5240 
      4 N         -82.4191   27.7130  -74.0989 N.am      1 UNK        -0.4739 
      5 CA        -81.2058   28.4766  -73.7898 C.3       1 UNK         0.0864 
      6 C6        -81.2403   29.0247  -72.3419 C.3       11 UNK        -0.0881 
      7 S7        -80.0206   30.3556  -72.0500 S.3       11 UNK        -0.2682 
      8 C8        -79.1451   29.7687  -70.5626 C.3       11 UNK         0.0289 
      9 C9        -78.0460   28.7638  -70.8838 C.ar      11 UNK        -0.0687 
     10 C10       -78.3311   27.3964  -70.9341 C.ar      11 UNK        -0.0823 
     11 C11       -77.3290   26.4601  -71.2046 C.ar      11 UNK        -0.0830 
     12 C12       -76.0166   26.9140  -71.3837 C.ar      11 UNK        -0.1021 
     13 C13       -75.7109   28.2775  -71.3477 C.ar      11 UNK        -0.0753 
     14 C14       -76.7358   29.1995  -71.1066 C.ar      11 UNK        -0.0933 
     15 C15       -74.2735   28.7068  -71.6291 C.3       11 UNK         0.0166 
     16 S16       -73.6598   30.0950  -70.6134 S.3       11 UNK        -0.2615 
     17 C17       -74.0217   31.6494  -71.5206 C.3       11 UNK        -0.0865 
     18 CA        -74.2585   31.5939  -73.0634 C.3       10 UNK         0.0862 
     19 C         -74.6126   32.9941  -73.6470 C.2       10 UNK         0.5551 
     20 N         -75.6772   33.6175  -73.1594 N.am      10 UNK        -0.7319 
     21 O         -73.9548   33.5216  -74.5425 O.2       10 UNK        -0.5018 
     22 N         -73.1942   30.9161  -73.8251 N.am      10 UNK        -0.4509 
     23 C         -71.8774   31.1503  -73.8087 C.2       10 UNK         0.4899 
     24 O         -71.3337   31.9704  -73.0672 O.2       10 UNK        -0.4839 
     25 CA        -71.0197   30.3188  -74.7938 C.3       9 UNK         0.0222 
     26 CB        -69.5115   30.4299  -74.4978 C.3       9 UNK        -0.1966 
     27 N         -71.3836   28.8941  -74.8600 N.am      9 UNK        -0.4218 
     28 C         -72.4558   28.3871  -75.4837 C.2       9 UNK         0.5020 
     29 O         -73.3073   29.0909  -76.0315 O.2       9 UNK        -0.5274 
     30 CA        -72.6212   26.8538  -75.4405 C.3       8 UNK         0.0270 
     31 CB        -73.0360   26.3789  -74.0391 C.3       8 UNK        -0.1976 
     32 N         -73.6150   26.3646  -76.3990 N.am      8 UNK        -0.4313 
     33 C         -73.4715   26.3668  -77.7294 C.2       8 UNK         0.5041 
     34 O         -72.4398   26.7062  -78.3139 O.2       8 UNK        -0.5577 
     35 CA        -74.7014   25.8900  -78.5205 C.3       7 UNK         0.0284 
     36 CB        -74.5138   25.9467  -80.0522 C.3       7 UNK        -0.1958 
     37 N         -75.1491   24.5637  -78.0773 N.am      7 UNK        -0.4454 
     38 C         -74.5064   23.3942  -78.2107 C.2       7 UNK         0.5089 
     39 O         -73.4107   23.2627  -78.7586 O.2       7 UNK        -0.5125 
     40 CA        -75.2406   22.1583  -77.6538 C.3       6 UNK         0.0408 
     41 CB        -74.3598   20.8905  -77.6229 C.3       6 UNK        -0.1791 
     42 N         -75.8743   22.3931  -76.3504 N.am      6 UNK        -0.4762 
     43 C         -75.2679   22.6747  -75.1837 C.2       6 UNK         0.5007 
     44 O         -74.0481   22.7983  -75.0708 O.2       6 UNK        -0.5032 
     45 CA        -76.1691   22.8308  -73.9345 C.3       5 UNK         0.0783 
     46 C46       -75.6268   23.8917  -72.9436 C.3       11 UNK        -0.0857 
     47 S47       -76.3860   23.7562  -71.2873 S.3       11 UNK        -0.2512 
     48 C48       -77.7344   24.9896  -71.3410 C.3       11 UNK         0.0225 
     49 N         -77.5386   23.1522  -74.3381 N.am      5 UNK        -0.4615 
     50 C         -78.5853   22.3189  -74.3302 C.2       4 UNK         0.5053 
     51 O         -78.5374   21.1619  -73.9139 O.2       4 UNK        -0.5105 
     52 CA        -79.9064   22.8583  -74.9135 C.3       4 UNK         0.0263 
     53 CB        -80.9037   23.1808  -73.7889 C.3       4 UNK        -0.1981 
     54 N         -79.7201   24.0463  -75.7561 N.am      4 UNK        -0.4224 
     55 C         -79.1452   24.0274  -76.9704 C.2       3 UNK         0.4895 
     56 O         -78.7608   22.9976  -77.5242 O.2       3 UNK        -0.5091 
     57 CA        -78.8875   25.3808  -77.6571 C.3       3 UNK         0.0250 
     58 CB        -80.0668   25.7553  -78.5669 C.3       3 UNK        -0.1996 
     59 N         -78.6321   26.4674  -76.7080 N.am      3 UNK        -0.4254 
     60 C         -77.5936   26.5192  -75.8605 C.2       2 UNK         0.5004 
     61 O         -76.6780   25.6948  -75.8542 O.2       2 UNK        -0.5226 
     62 CA        -77.5838   27.6446  -74.8140 C.3       2 UNK         0.0269 
     63 CB        -76.5792   28.7338  -75.1992 C.3       2 UNK        -0.1926 
     64 N         -78.8872   28.2617  -74.5575 N.am      2 UNK        -0.4687 
     65 C         -79.9502   27.6213  -74.0549 C.2       1 UNK         0.5165 
     66 O         -79.9657   26.4115  -73.8123 O.2       1 UNK        -0.5079 
     67 H67       -84.7466   26.9242  -76.0980 H         1 UNK         0.0900 
     68 H68       -83.7356   25.4879  -75.9134 H         1 UNK         0.0900 
     69 H69       -84.4671   26.2409  -74.4947 H         1 UNK         0.0900 
     70 H70       -82.9535   27.3920  -73.3044 H         1 UNK         0.2959 
     71 H71       -81.1879   29.3276  -74.4749 H         1 UNK         0.1079 
     72 H72       -81.1228   28.2197  -71.6158 H         1 UNK         0.0837 
     73 H73       -82.2216   29.4571  -72.1396 H         1 UNK         0.0837 
     74 H74       -79.8586   29.3412  -69.8565 H         1 UNK         0.0685 
     75 H75       -78.7104   30.6327  -70.0577 H         1 UNK         0.0685 
     76 H76       -79.3446   27.0551  -70.7776 H         1 UNK         0.1434 
     77 H77       -75.2190   26.2134  -71.5768 H         1 UNK         0.1329 
     78 H78       -76.5176   30.2568  -71.0829 H         1 UNK         0.1335 
     79 H79       -74.1688   28.8935  -72.6929 H         1 UNK         0.0680 
     80 H80       -73.6062   27.8705  -71.4170 H         1 UNK         0.0680 
     81 H81       -74.8939   32.0840  -71.0308 H         1 UNK         0.1032 
     82 H82       -73.2090   32.3429  -71.2995 H         1 UNK         0.1032 
     83 H83       -75.1481   30.9889  -73.2342 H         1 UNK         0.0461 
     84 H84       -75.9220   34.5222  -73.5310 H         1 UNK         0.3453 
     85 H85       -76.2522   33.2020  -72.4441 H         1 UNK         0.3453 
     86 H86       -73.5162   30.2755  -74.5449 H         1 UNK         0.2984 
     87 H87       -71.1867   30.7514  -75.7824 H         1 UNK         0.0554 
     88 H88       -69.1800   31.4688  -74.5284 H         1 UNK         0.0847 
     89 H89       -68.9194   29.8859  -75.2339 H         1 UNK         0.0847 
     90 H90       -69.2649   30.0381  -73.5101 H         1 UNK         0.0847 
     91 H91       -70.7548   28.2554  -74.3941 H         1 UNK         0.3141 
     92 H92       -71.6575   26.4061  -75.6919 H         1 UNK         0.0743 
     93 H93       -74.0369   26.7240  -73.7804 H         1 UNK         0.0784 
     94 H94       -73.0343   25.2904  -73.9826 H         1 UNK         0.0784 
     95 H95       -72.3494   26.7382  -73.2719 H         1 UNK         0.0784 
     96 H96       -74.5091   26.0716  -76.0239 H         1 UNK         0.3213 
     97 H97       -75.5069   26.5834  -78.2733 H         1 UNK         0.0855 
     98 H98       -73.6867   25.3209  -80.3882 H         1 UNK         0.0814 
     99 H99       -74.2978   26.9652  -80.3770 H         1 UNK         0.0814 
    100 H100      -75.4141   25.6237  -80.5746 H         1 UNK         0.0814 
    101 H101      -75.9849   24.5664  -77.5046 H         1 UNK         0.3105 
    102 H102      -76.0589   21.9635  -78.3487 H         1 UNK         0.0547 
    103 H103      -74.9141   20.0301  -77.2487 H         1 UNK         0.0837 
    104 H104      -73.4784   21.0223  -76.9947 H         1 UNK         0.0837 
    105 H105      -74.0074   20.6363  -78.6233 H         1 UNK         0.0837 
    106 H106      -76.8855   22.3389  -76.3527 H         1 UNK         0.3020 
    107 H107      -76.1453   21.8586  -73.4367 H         1 UNK         0.1245 
    108 H108      -75.7661   24.8938  -73.3502 H         1 UNK         0.0781 
    109 H109      -74.5535   23.7723  -72.7875 H         1 UNK         0.0781 
    110 H110      -78.4289   24.7434  -70.5364 H         1 UNK         0.0836 
    111 H111      -78.2925   24.8670  -72.2690 H         1 UNK         0.0836 
    112 H112      -77.6580   24.0743  -74.7366 H         1 UNK         0.3022 
    113 H113      -80.3368   22.0683  -75.5326 H         1 UNK         0.0747 
    114 H114      -81.8472   23.5544  -74.1874 H         1 UNK         0.0793 
    115 H115      -81.1296   22.2891  -73.2027 H         1 UNK         0.0793 
    116 H116      -80.5108   23.9289  -73.1001 H         1 UNK         0.0793 
    117 H117      -79.9628   24.9377  -75.3360 H         1 UNK         0.3047 
    118 H118      -78.0004   25.2708  -78.2835 H         1 UNK         0.0822 
    119 H119      -79.8802   26.6894  -79.0971 H         1 UNK         0.0807 
    120 H120      -80.9932   25.8682  -78.0029 H         1 UNK         0.0807 
    121 H121      -80.2371   24.9847  -79.3201 H         1 UNK         0.0807 
    122 H122      -79.3423   27.1830  -76.6350 H         1 UNK         0.2946 
    123 H123      -77.2503   27.1918  -73.8805 H         1 UNK         0.1144 
    124 H124      -76.5086   29.4971  -74.4255 H         1 UNK         0.0793 
    125 H125      -76.8432   29.2223  -76.1378 H         1 UNK         0.0793 
    126 H126      -75.5875   28.3031  -75.3191 H         1 UNK         0.0793 
    127 H127      -78.9515   29.2575  -74.7140 H         1 UNK         0.2896 
@<TRIPOS>BOND
     1    1    2 1    
     2    1   67 1    
     3    1   68 1    
     4    1   69 1    
     5    2    3 2    
     6    2    4 am   BACKBONE|DICT|INTERRES
     7    4    5 1    
     8    4   70 1    
     9    5    6 1    
    10    5   65 1    
    11    5   71 1    
    12    6    7 1    
    13    6   72 1    
    14    6   73 1    
    15    7    8 1    
    16    8    9 1    
    17    8   74 1    
    18    8   75 1    
    19    9   10 ar   
    20    9   14 ar   
    21   10   11 ar   
    22   10   76 1    
    23   11   12 ar   
    24   11   48 1    
    25   12   13 ar   
    26   12   77 1    
    27   13   14 ar   
    28   13   15 1    
    29   14   78 1    
    30   15   16 1    
    31   15   79 1    
    32   15   80 1    
    33   16   17 1    
    34   17   18 1    
    35   17   81 1    
    36   17   82 1    
    37   18   19 1    
    38   18   22 1    
    39   18   83 1    
    40   19   20 am   BACKBONE|DICT|INTERRES
    41   19   21 2    
    42   20   84 1    
    43   20   85 1    
    44   22   23 am   BACKBONE|DICT|INTERRES
    45   22   86 1    
    46   23   24 2    
    47   23   25 1    
    48   25   26 1    
    49   25   27 1    
    50   25   87 1    
    51   26   88 1    
    52   26   89 1    
    53   26   90 1    
    54   27   28 am   BACKBONE|DICT|INTERRES
    55   27   91 1    
    56   28   29 2    
    57   28   30 1    
    58   30   31 1    
    59   30   32 1    
    60   30   92 1    
    61   31   93 1    
    62   31   94 1    
    63   31   95 1    
    64   32   33 am   BACKBONE|DICT|INTERRES
    65   32   96 1    
    66   33   34 2    
    67   33   35 1    
    68   35   36 1    
    69   35   37 1    
    70   35   97 1    
    71   36   98 1    
    72   36   99 1    
    73   36  100 1    
    74   37   38 am   BACKBONE|DICT|INTERRES
    75   37  101 1    
    76   38   39 2    
    77   38   40 1    
    78   40   41 1    
    79   40   42 1    
    80   40  102 1    
    81   41  103 1    
    82   41  104 1    
    83   41  105 1    
    84   42   43 am   BACKBONE|DICT|INTERRES
    85   42  106 1    
    86   43   44 2    
    87   43   45 1    
    88   45   46 1    
    89   45   49 1    
    90   45  107 1    
    91   46   47 1    
    92   46  108 1    
    93   46  109 1    
    94   47   48 1    
    95   48  110 1    
    96   48  111 1    
    97   49   50 am   BACKBONE|DICT|INTERRES
    98   49  112 1    
    99   50   51 2    
   100   50   52 1    
   101   52   53 1    
   102   52   54 1    
   103   52  113 1    
   104   53  114 1    
   105   53  115 1    
   106   53  116 1    
   107   54   55 am   BACKBONE|DICT|INTERRES
   108   54  117 1    
   109   55   56 2    
   110   55   57 1    
   111   57   58 1    
   112   57   59 1    
   113   57  118 1    
   114   58  119 1    
   115   58  120 1    
   116   58  121 1    
   117   59   60 am   BACKBONE|DICT|INTERRES
   118   59  122 1    
   119   60   61 2    
   120   60   62 1    
   121   62   63 1    
   122   62   64 1    
   123   62  123 1    
   124   63  124 1    
   125   63  125 1    
   126   63  126 1    
   127   64   65 am   BACKBONE|DICT|INTERRES
   128   64  127 1    
   129   65   66 2    
@<TRIPOS>SUBSTRUCTURE
     1 UNK         1 GROUP             0       ****    0 ROOT    
