@<TRIPOS>MOLECULE
3R135
127   129    1
SMALL
USER_CHARGES


@<TRIPOS>ATOM
      1 CA        -86.1547   28.3420  -76.9952 C.3       0 UNK        -0.1998 
      2 C         -84.6798   28.1261  -76.6901 C.2       0 UNK         0.4909 
      3 O         -83.9404   27.6470  -77.5510 O.2       0 UNK        -0.5240 
      4 N         -84.2448   28.4835  -75.4749 N.am      1 UNK        -0.4739 
      5 CA        -82.8762   28.2823  -74.9868 C.3       1 UNK         0.0864 
      6 C6        -82.5737   29.2199  -73.7891 C.3       11 UNK        -0.0881 
      7 S7        -80.7861   29.5407  -73.6068 S.3       11 UNK        -0.2682 
      8 C8        -80.5503   29.4184  -71.8052 C.3       11 UNK         0.0289 
      9 C9        -79.1385   28.9648  -71.4602 C.ar      11 UNK        -0.0687 
     10 C10       -78.9264   27.6941  -70.9208 C.ar      11 UNK        -0.0823 
     11 C11       -77.6365   27.2619  -70.6056 C.ar      11 UNK        -0.0830 
     12 C12       -76.5511   28.1097  -70.8360 C.ar      11 UNK        -0.1021 
     13 C13       -76.7413   29.3874  -71.3829 C.ar      11 UNK        -0.0753 
     14 C14       -78.0435   29.8074  -71.6795 C.ar      11 UNK        -0.0933 
     15 C15       -75.5852   30.3479  -71.6769 C.3       11 UNK         0.0166 
     16 S16       -73.9114   29.6291  -71.5406 S.3       11 UNK        -0.2615 
     17 C17       -72.8794   30.9915  -72.1795 C.3       11 UNK        -0.0865 
     18 CA        -72.3273   30.7102  -73.6025 C.3       10 UNK         0.0862 
     19 C         -71.5405   31.9442  -74.1353 C.2       10 UNK         0.5551 
     20 N         -70.2356   31.8559  -74.3632 N.am      10 UNK        -0.7319 
     21 O         -72.1285   33.0028  -74.3423 O.2       10 UNK        -0.5018 
     22 N         -71.6013   29.4286  -73.6565 N.am      10 UNK        -0.4509 
     23 C         -71.2896   28.7633  -74.7750 C.2       10 UNK         0.4899 
     24 O         -71.5252   29.1844  -75.9081 O.2       10 UNK        -0.4839 
     25 CA        -70.5964   27.3995  -74.6201 C.3       9 UNK         0.0222 
     26 CB        -70.4130   26.9287  -73.1614 C.3       9 UNK        -0.1966 
     27 N         -71.3916   26.4178  -75.3491 N.am      9 UNK        -0.4218 
     28 C         -70.9275   25.5404  -76.2464 C.2       9 UNK         0.5020 
     29 O         -69.7328   25.3818  -76.5032 O.2       9 UNK        -0.5274 
     30 CA        -71.9749   24.6960  -76.9967 C.3       8 UNK         0.0270 
     31 CB        -72.3101   23.4269  -76.2005 C.3       8 UNK        -0.1976 
     32 N         -73.2110   25.4293  -77.2844 N.am      8 UNK        -0.4313 
     33 C         -73.2980   26.4857  -78.1072 C.2       8 UNK         0.5041 
     34 O         -72.3565   26.9105  -78.7779 O.2       8 UNK        -0.5577 
     35 CA        -74.6560   27.1954  -78.1956 C.3       7 UNK         0.0284 
     36 CB        -75.5142   26.5947  -79.3219 C.3       7 UNK        -0.1958 
     37 N         -75.3765   27.1188  -76.9211 N.am      7 UNK        -0.4454 
     38 C         -75.4470   28.1240  -76.0380 C.2       7 UNK         0.5089 
     39 O         -74.9643   29.2404  -76.2266 O.2       7 UNK        -0.5125 
     40 CA        -76.2056   27.8606  -74.7283 C.3       6 UNK         0.0408 
     41 CB        -77.6884   28.2143  -74.9030 C.3       6 UNK        -0.1791 
     42 N         -76.0960   26.4929  -74.2150 N.am      6 UNK        -0.4762 
     43 C         -74.9708   25.9484  -73.7325 C.2       6 UNK         0.5007 
     44 O         -73.8707   26.4940  -73.8118 O.2       6 UNK        -0.5032 
     45 CA        -75.0607   24.5469  -73.1021 C.3       5 UNK         0.0783 
     46 C46       -75.4702   24.5666  -71.6038 C.3       11 UNK        -0.0857 
     47 S47       -77.2712   24.6032  -71.2821 S.3       11 UNK        -0.2512 
     48 C48       -77.4248   25.8837  -70.0000 C.3       11 UNK         0.0225 
     49 N         -75.8945   23.6709  -73.9247 N.am      5 UNK        -0.4615 
     50 C         -75.5165   22.4844  -74.4121 C.2       4 UNK         0.5053 
     51 O         -74.4690   21.9196  -74.0970 O.2       4 UNK        -0.5105 
     52 CA        -76.4406   21.8070  -75.4455 C.3       4 UNK         0.0263 
     53 CB        -77.2118   20.6493  -74.7909 C.3       4 UNK        -0.1981 
     54 N         -77.3992   22.7003  -76.1067 N.am      4 UNK        -0.4224 
     55 C         -77.1045   23.8129  -76.7951 C.2       3 UNK         0.4895 
     56 O         -75.9594   24.2305  -76.9777 O.2       3 UNK        -0.5091 
     57 CA        -78.2944   24.6537  -77.2954 C.3       3 UNK         0.0250 
     58 CB        -78.6940   24.2197  -78.7141 C.3       3 UNK        -0.1996 
     59 N         -79.4842   24.6494  -76.4279 N.am      3 UNK        -0.4254 
     60 C         -79.4987   24.9055  -75.1111 C.2       2 UNK         0.5004 
     61 O         -78.4827   25.0997  -74.4439 O.2       2 UNK        -0.5226 
     62 CA        -80.8726   25.0305  -74.4482 C.3       2 UNK         0.0269 
     63 CB        -80.8211   24.7364  -72.9355 C.3       2 UNK        -0.1926 
     64 N         -81.3427   26.3924  -74.6850 N.am      2 UNK        -0.4687 
     65 C         -82.6176   26.7936  -74.6540 C.2       1 UNK         0.5165 
     66 O         -83.5593   26.0478  -74.3696 O.2       1 UNK        -0.5079 
     67 H67       -86.2676   29.0049  -77.8527 H         1 UNK         0.0900 
     68 H68       -86.6852   28.7848  -76.1524 H         1 UNK         0.0900 
     69 H69       -86.6309   27.3914  -77.2338 H         1 UNK         0.0900 
     70 H70       -84.9051   28.8384  -74.7979 H         1 UNK         0.2959 
     71 H71       -82.2087   28.5535  -75.8087 H         1 UNK         0.1079 
     72 H72       -83.0455   30.1917  -73.9450 H         1 UNK         0.0837 
     73 H73       -83.0031   28.8274  -72.8655 H         1 UNK         0.0837 
     74 H74       -81.2766   28.7240  -71.3809 H         1 UNK         0.0685 
     75 H75       -80.7483   30.3894  -71.3492 H         1 UNK         0.0685 
     76 H76       -79.7668   27.0379  -70.7424 H         1 UNK         0.1434 
     77 H77       -75.5612   27.7579  -70.5866 H         1 UNK         0.1329 
     78 H78       -78.2079   30.7892  -72.1024 H         1 UNK         0.1335 
     79 H79       -75.6564   31.1990  -70.9983 H         1 UNK         0.0680 
     80 H80       -75.7055   30.7399  -72.6883 H         1 UNK         0.0680 
     81 H81       -73.4602   31.9161  -72.1675 H         1 UNK         0.1032 
     82 H82       -72.0565   31.1488  -71.4798 H         1 UNK         0.1032 
     83 H83       -73.1891   30.6045  -74.2650 H         1 UNK         0.0461 
     84 H84       -69.7371   32.6604  -74.7094 H         1 UNK         0.3453 
     85 H85       -69.7487   30.9894  -74.2005 H         1 UNK         0.3453 
     86 H86       -71.3934   29.0038  -72.7653 H         1 UNK         0.2984 
     87 H87       -69.6095   27.5007  -75.0759 H         1 UNK         0.0554 
     88 H88       -69.9204   25.9568  -73.1266 H         1 UNK         0.0847 
     89 H89       -71.3666   26.8296  -72.6404 H         1 UNK         0.0847 
     90 H90       -69.7873   27.6195  -72.5950 H         1 UNK         0.0847 
     91 H91       -72.3920   26.4745  -75.1826 H         1 UNK         0.3141 
     92 H92       -71.5384   24.3955  -77.9515 H         1 UNK         0.0743 
     93 H93       -72.7164   23.6684  -75.2184 H         1 UNK         0.0784 
     94 H94       -73.0382   22.8056  -76.7228 H         1 UNK         0.0784 
     95 H95       -71.4183   22.8192  -76.0418 H         1 UNK         0.0784 
     96 H96       -74.0633   25.0792  -76.8622 H         1 UNK         0.3213 
     97 H97       -74.4618   28.2391  -78.4531 H         1 UNK         0.0855 
     98 H98       -75.6580   25.5215  -79.2025 H         1 UNK         0.0814 
     99 H99       -75.0367   26.7467  -80.2907 H         1 UNK         0.0814 
    100 H100      -76.4968   27.0642  -79.3682 H         1 UNK         0.0814 
    101 H101      -75.7795   26.2210  -76.6787 H         1 UNK         0.3105 
    102 H102      -75.7855   28.5222  -73.9694 H         1 UNK         0.0547 
    103 H103      -78.2523   27.9896  -73.9987 H         1 UNK         0.0837 
    104 H104      -77.8143   29.2774  -75.1112 H         1 UNK         0.0837 
    105 H105      -78.1438   27.6623  -75.7250 H         1 UNK         0.0837 
    106 H106      -76.9726   25.9793  -74.1302 H         1 UNK         0.3020 
    107 H107      -74.0335   24.1756  -73.1307 H         1 UNK         0.1245 
    108 H108      -74.9763   25.3882  -71.0822 H         1 UNK         0.0781 
    109 H109      -75.0923   23.6597  -71.1296 H         1 UNK         0.0781 
    110 H110      -78.2738   25.6332  -69.3622 H         1 UNK         0.0836 
    111 H111      -76.5505   25.8745  -69.3474 H         1 UNK         0.0836 
    112 H112      -76.7966   24.0474  -74.1971 H         1 UNK         0.3022 
    113 H113      -75.7955   21.3951  -76.2242 H         1 UNK         0.0747 
    114 H114      -77.7921   20.0908  -75.5255 H         1 UNK         0.0793 
    115 H115      -76.5288   19.9427  -74.3168 H         1 UNK         0.0793 
    116 H116      -77.8960   21.0074  -74.0204 H         1 UNK         0.0793 
    117 H117      -78.3751   22.4676  -75.9958 H         1 UNK         0.3047 
    118 H118      -77.9505   25.6881  -77.3477 H         1 UNK         0.0822 
    119 H119      -79.4361   24.8940  -79.1419 H         1 UNK         0.0807 
    120 H120      -79.1092   23.2112  -78.7260 H         1 UNK         0.0807 
    121 H121      -77.8332   24.2247  -79.3843 H         1 UNK         0.0807 
    122 H122      -80.3705   24.5228  -76.8962 H         1 UNK         0.2946 
    123 H123      -81.5516   24.3172  -74.9211 H         1 UNK         0.1144 
    124 H124      -81.8117   24.7822  -72.4834 H         1 UNK         0.0793 
    125 H125      -80.1805   25.4457  -72.4123 H         1 UNK         0.0793 
    126 H126      -80.4218   23.7393  -72.7457 H         1 UNK         0.0793 
    127 H127      -80.6220   27.0702  -74.8956 H         1 UNK         0.2896 
@<TRIPOS>BOND
     1    1    2 1    
     2    1   67 1    
     3    1   68 1    
     4    1   69 1    
     5    2    3 2    
     6    2    4 am   BACKBONE|DICT|INTERRES
     7    4    5 1    
     8    4   70 1    
     9    5    6 1    
    10    5   65 1    
    11    5   71 1    
    12    6    7 1    
    13    6   72 1    
    14    6   73 1    
    15    7    8 1    
    16    8    9 1    
    17    8   74 1    
    18    8   75 1    
    19    9   10 ar   
    20    9   14 ar   
    21   10   11 ar   
    22   10   76 1    
    23   11   12 ar   
    24   11   48 1    
    25   12   13 ar   
    26   12   77 1    
    27   13   14 ar   
    28   13   15 1    
    29   14   78 1    
    30   15   16 1    
    31   15   79 1    
    32   15   80 1    
    33   16   17 1    
    34   17   18 1    
    35   17   81 1    
    36   17   82 1    
    37   18   19 1    
    38   18   22 1    
    39   18   83 1    
    40   19   20 am   BACKBONE|DICT|INTERRES
    41   19   21 2    
    42   20   84 1    
    43   20   85 1    
    44   22   23 am   BACKBONE|DICT|INTERRES
    45   22   86 1    
    46   23   24 2    
    47   23   25 1    
    48   25   26 1    
    49   25   27 1    
    50   25   87 1    
    51   26   88 1    
    52   26   89 1    
    53   26   90 1    
    54   27   28 am   BACKBONE|DICT|INTERRES
    55   27   91 1    
    56   28   29 2    
    57   28   30 1    
    58   30   31 1    
    59   30   32 1    
    60   30   92 1    
    61   31   93 1    
    62   31   94 1    
    63   31   95 1    
    64   32   33 am   BACKBONE|DICT|INTERRES
    65   32   96 1    
    66   33   34 2    
    67   33   35 1    
    68   35   36 1    
    69   35   37 1    
    70   35   97 1    
    71   36   98 1    
    72   36   99 1    
    73   36  100 1    
    74   37   38 am   BACKBONE|DICT|INTERRES
    75   37  101 1    
    76   38   39 2    
    77   38   40 1    
    78   40   41 1    
    79   40   42 1    
    80   40  102 1    
    81   41  103 1    
    82   41  104 1    
    83   41  105 1    
    84   42   43 am   BACKBONE|DICT|INTERRES
    85   42  106 1    
    86   43   44 2    
    87   43   45 1    
    88   45   46 1    
    89   45   49 1    
    90   45  107 1    
    91   46   47 1    
    92   46  108 1    
    93   46  109 1    
    94   47   48 1    
    95   48  110 1    
    96   48  111 1    
    97   49   50 am   BACKBONE|DICT|INTERRES
    98   49  112 1    
    99   50   51 2    
   100   50   52 1    
   101   52   53 1    
   102   52   54 1    
   103   52  113 1    
   104   53  114 1    
   105   53  115 1    
   106   53  116 1    
   107   54   55 am   BACKBONE|DICT|INTERRES
   108   54  117 1    
   109   55   56 2    
   110   55   57 1    
   111   57   58 1    
   112   57   59 1    
   113   57  118 1    
   114   58  119 1    
   115   58  120 1    
   116   58  121 1    
   117   59   60 am   BACKBONE|DICT|INTERRES
   118   59  122 1    
   119   60   61 2    
   120   60   62 1    
   121   62   63 1    
   122   62   64 1    
   123   62  123 1    
   124   63  124 1    
   125   63  125 1    
   126   63  126 1    
   127   64   65 am   BACKBONE|DICT|INTERRES
   128   64  127 1    
   129   65   66 2    
@<TRIPOS>SUBSTRUCTURE
     1 UNK         1 GROUP             0       ****    0 ROOT    
