@<TRIPOS>MOLECULE
3R135
127   129    1
SMALL
USER_CHARGES


@<TRIPOS>ATOM
      1 CA        -80.8158   25.0830  -71.6466 C.3       0 UNK        -0.1998 
      2 C         -80.7806   25.4845  -73.1120 C.2       0 UNK         0.4909 
      3 O         -81.1786   24.6945  -73.9703 O.2       0 UNK        -0.5240 
      4 N         -80.3075   26.7073  -73.3900 N.am      1 UNK        -0.4739 
      5 CA        -80.2644   27.3679  -74.7016 C.3       1 UNK         0.0864 
      6 C6        -79.5655   28.7503  -74.6375 C.3       11 UNK        -0.0881 
      7 S7        -80.2280   29.8166  -73.3099 S.3       11 UNK        -0.2682 
      8 C8        -78.7132   30.5604  -72.6097 C.3       11 UNK         0.0289 
      9 C9        -77.6739   29.5435  -72.1425 C.ar      11 UNK        -0.0687 
     10 C10       -78.0367   28.4529  -71.3438 C.ar      11 UNK        -0.0823 
     11 C11       -77.0786   27.5201  -70.9335 C.ar      11 UNK        -0.0830 
     12 C12       -75.7371   27.7263  -71.2653 C.ar      11 UNK        -0.1021 
     13 C13       -75.3633   28.7970  -72.0789 C.ar      11 UNK        -0.0753 
     14 C14       -76.3355   29.7004  -72.5177 C.ar      11 UNK        -0.0933 
     15 C15       -73.9158   28.9370  -72.5187 C.3       11 UNK         0.0166 
     16 S16       -72.8872   29.7393  -71.2518 S.3       11 UNK        -0.2615 
     17 C17       -73.2674   31.5023  -71.5434 C.3       11 UNK        -0.0865 
     18 CA        -72.1939   32.2473  -72.3804 C.3       10 UNK         0.0862 
     19 C         -70.8898   32.5168  -71.5734 C.2       10 UNK         0.5551 
     20 N         -69.7296   32.0339  -72.0032 N.am      10 UNK        -0.7319 
     21 O         -70.9305   33.1945  -70.5493 O.2       10 UNK        -0.5018 
     22 N         -71.9721   31.6039  -73.6865 N.am      10 UNK        -0.4509 
     23 C         -71.6636   32.2485  -74.8156 C.2       10 UNK         0.4899 
     24 O         -71.6330   33.4764  -74.9063 O.2       10 UNK        -0.4839 
     25 CA        -71.3280   31.4155  -76.0690 C.3       9 UNK         0.0222 
     26 CB        -69.8064   31.4071  -76.3163 C.3       9 UNK        -0.1966 
     27 N         -71.8698   30.0479  -76.1302 N.am      9 UNK        -0.4218 
     28 C         -71.5917   28.9789  -75.3739 C.2       9 UNK         0.5020 
     29 O         -70.9091   29.0322  -74.3499 O.2       9 UNK        -0.5274 
     30 CA        -72.1709   27.6271  -75.8506 C.3       8 UNK         0.0270 
     31 CB        -71.6934   26.4427  -74.9888 C.3       8 UNK        -0.1976 
     32 N         -73.6352   27.5772  -75.9419 N.am      8 UNK        -0.4313 
     33 C         -74.4010   28.2316  -76.8270 C.2       8 UNK         0.5041 
     34 O         -73.9622   29.0634  -77.6252 O.2       8 UNK        -0.5577 
     35 CA        -75.8990   27.8602  -76.8407 C.3       7 UNK         0.0284 
     36 CB        -76.6697   28.5075  -78.0096 C.3       7 UNK        -0.1958 
     37 N         -76.1348   26.4102  -76.8235 N.am      7 UNK        -0.4454 
     38 C         -75.6103   25.4723  -77.6312 C.2       7 UNK         0.5089 
     39 O         -74.8585   25.7196  -78.5748 O.2       7 UNK        -0.5125 
     40 CA        -76.0022   24.0045  -77.3454 C.3       6 UNK         0.0408 
     41 CB        -74.8552   23.0223  -77.6627 C.3       6 UNK        -0.1791 
     42 N         -76.5240   23.7712  -75.9905 N.am      6 UNK        -0.4762 
     43 C         -75.8872   23.9711  -74.8250 C.2       6 UNK         0.5007 
     44 O         -74.7212   24.3619  -74.7500 O.2       6 UNK        -0.5032 
     45 CA        -76.6786   23.7296  -73.5214 C.3       5 UNK         0.0783 
     46 C46       -76.8018   25.0318  -72.6901 C.3       11 UNK        -0.0857 
     47 S47       -77.0191   24.6842  -70.9083 S.3       11 UNK        -0.2512 
     48 C48       -77.4984   26.2839  -70.1455 C.3       11 UNK         0.0225 
     49 N         -77.9935   23.1234  -73.7742 N.am      5 UNK        -0.4615 
     50 C         -78.2271   21.8060  -73.7195 C.2       4 UNK         0.5053 
     51 O         -77.3556   20.9696  -73.4812 O.2       4 UNK        -0.5105 
     52 CA        -79.6628   21.3238  -73.9650 C.3       4 UNK         0.0263 
     53 CB        -80.4585   21.3103  -72.6501 C.3       4 UNK        -0.1981 
     54 N         -80.3789   22.1323  -74.9566 N.am      4 UNK        -0.4224 
     55 C         -80.6428   21.7168  -76.2032 C.2       3 UNK         0.4895 
     56 O         -80.2183   20.6660  -76.6856 O.2       3 UNK        -0.5091 
     57 CA        -81.5616   22.6089  -77.0499 C.3       3 UNK         0.0250 
     58 CB        -82.9760   22.6846  -76.4483 C.3       3 UNK        -0.1996 
     59 N         -81.0268   23.9573  -77.2210 N.am      3 UNK        -0.4254 
     60 C         -80.0276   24.2812  -78.0538 C.2       2 UNK         0.5004 
     61 O         -79.4304   23.4656  -78.7556 O.2       2 UNK        -0.5226 
     62 CA        -79.6358   25.7682  -78.1450 C.3       2 UNK         0.0269 
     63 CB        -80.1608   26.3865  -79.4508 C.3       2 UNK        -0.1926 
     64 N         -80.1105   26.5695  -77.0132 N.am      2 UNK        -0.4687 
     65 C         -79.5903   26.5045  -75.7822 C.2       1 UNK         0.5165 
     66 O         -78.6114   25.8141  -75.4920 O.2       1 UNK        -0.5079 
     67 H67       -80.8021   25.9530  -70.9910 H         1 UNK         0.0900 
     68 H68       -79.9594   24.4553  -71.4059 H         1 UNK         0.0900 
     69 H69       -81.7238   24.5200  -71.4326 H         1 UNK         0.0900 
     70 H70       -79.9852   27.2899  -72.6327 H         1 UNK         0.2959 
     71 H71       -81.3046   27.5223  -74.9955 H         1 UNK         0.1079 
     72 H72       -78.4903   28.6223  -74.5019 H         1 UNK         0.0837 
     73 H73       -79.6847   29.2827  -75.5833 H         1 UNK         0.0837 
     74 H74       -78.2864   31.2292  -73.3588 H         1 UNK         0.0685 
     75 H75       -78.9919   31.1876  -71.7621 H         1 UNK         0.0685 
     76 H76       -79.0703   28.3264  -71.0543 H         1 UNK         0.1434 
     77 H77       -74.9893   27.0180  -70.9349 H         1 UNK         0.1329 
     78 H78       -76.0497   30.5273  -73.1530 H         1 UNK         0.1335 
     79 H79       -73.5047   27.9479  -72.7218 H         1 UNK         0.0680 
     80 H80       -73.8545   29.4887  -73.4571 H         1 UNK         0.0680 
     81 H81       -73.4038   31.9883  -70.5755 H         1 UNK         0.1032 
     82 H82       -74.2337   31.5898  -72.0388 H         1 UNK         0.1032 
     83 H83       -72.6071   33.2397  -72.5708 H         1 UNK         0.0461 
     84 H84       -69.6942   31.4621  -72.8320 H         1 UNK         0.3453 
     85 H85       -68.8899   32.2195  -71.4780 H         1 UNK         0.3453 
     86 H86       -71.8646   30.5945  -73.6761 H         1 UNK         0.2984 
     87 H87       -71.7901   31.9398  -76.9070 H         1 UNK         0.0554 
     88 H88       -69.5602   30.9180  -77.2588 H         1 UNK         0.0847 
     89 H89       -69.2671   30.8922  -75.5206 H         1 UNK         0.0847 
     90 H90       -69.4123   32.4230  -76.3685 H         1 UNK         0.0847 
     91 H91       -72.5406   29.8794  -76.8818 H         1 UNK         0.3141 
     92 H92       -71.7796   27.4677  -76.8576 H         1 UNK         0.0743 
     93 H93       -72.0577   26.5121  -73.9637 H         1 UNK         0.0784 
     94 H94       -72.0324   25.4910  -75.3993 H         1 UNK         0.0784 
     95 H95       -70.6041   26.4037  -74.9452 H         1 UNK         0.0784 
     96 H96       -74.0878   26.8908  -75.3532 H         1 UNK         0.3213 
     97 H97       -76.3165   28.2530  -75.9122 H         1 UNK         0.0855 
     98 H98       -76.5653   29.5931  -77.9950 H         1 UNK         0.0814 
     99 H99       -77.7353   28.2869  -77.9536 H         1 UNK         0.0814 
    100 H100      -76.3037   28.1574  -78.9754 H         1 UNK         0.0814 
    101 H101      -76.7996   26.0844  -76.1262 H         1 UNK         0.3105 
    102 H102      -76.8225   23.7768  -78.0260 H         1 UNK         0.0547 
    103 H103      -74.5709   23.0776  -78.7141 H         1 UNK         0.0837 
    104 H104      -73.9624   23.2379  -77.0750 H         1 UNK         0.0837 
    105 H105      -75.1482   21.9917  -77.4633 H         1 UNK         0.0837 
    106 H106      -77.4951   23.4975  -75.9377 H         1 UNK         0.3020 
    107 H107      -76.0590   23.0340  -72.9501 H         1 UNK         0.1245 
    108 H108      -77.6168   25.6601  -73.0500 H         1 UNK         0.0781 
    109 H109      -75.8930   25.6250  -72.7885 H         1 UNK         0.0781 
    110 H110      -77.0593   26.3377  -69.1485 H         1 UNK         0.0836 
    111 H111      -78.5778   26.2779  -69.9937 H         1 UNK         0.0836 
    112 H112      -78.7444   23.7600  -74.0037 H         1 UNK         0.3022 
    113 H113      -79.5935   20.2882  -74.3052 H         1 UNK         0.0747 
    114 H114      -81.4464   20.8722  -72.7924 H         1 UNK         0.0793 
    115 H115      -79.9483   20.7180  -71.8890 H         1 UNK         0.0793 
    116 H116      -80.5944   22.3121  -72.2471 H         1 UNK         0.0793 
    117 H117      -80.7577   23.0254  -74.6440 H         1 UNK         0.3047 
    118 H118      -81.6482   22.1482  -78.0368 H         1 UNK         0.0822 
    119 H119      -83.6571   23.2213  -77.1089 H         1 UNK         0.0807 
    120 H120      -82.9850   23.1881  -75.4808 H         1 UNK         0.0807 
    121 H121      -83.3908   21.6865  -76.3002 H         1 UNK         0.0807 
    122 H122      -81.4344   24.6847  -76.6512 H         1 UNK         0.2946 
    123 H123      -78.5462   25.8105  -78.1685 H         1 UNK         0.1144 
    124 H124      -79.7993   25.8324  -80.3184 H         1 UNK         0.0793 
    125 H125      -79.8243   27.4171  -79.5655 H         1 UNK         0.0793 
    126 H126      -81.2507   26.3806  -79.4917 H         1 UNK         0.0793 
    127 H127      -80.9035   27.1714  -77.1865 H         1 UNK         0.2896 
@<TRIPOS>BOND
     1    1    2 1    
     2    1   67 1    
     3    1   68 1    
     4    1   69 1    
     5    2    3 2    
     6    2    4 am   BACKBONE|DICT|INTERRES
     7    4    5 1    
     8    4   70 1    
     9    5    6 1    
    10    5   65 1    
    11    5   71 1    
    12    6    7 1    
    13    6   72 1    
    14    6   73 1    
    15    7    8 1    
    16    8    9 1    
    17    8   74 1    
    18    8   75 1    
    19    9   10 ar   
    20    9   14 ar   
    21   10   11 ar   
    22   10   76 1    
    23   11   12 ar   
    24   11   48 1    
    25   12   13 ar   
    26   12   77 1    
    27   13   14 ar   
    28   13   15 1    
    29   14   78 1    
    30   15   16 1    
    31   15   79 1    
    32   15   80 1    
    33   16   17 1    
    34   17   18 1    
    35   17   81 1    
    36   17   82 1    
    37   18   19 1    
    38   18   22 1    
    39   18   83 1    
    40   19   20 am   BACKBONE|DICT|INTERRES
    41   19   21 2    
    42   20   84 1    
    43   20   85 1    
    44   22   23 am   BACKBONE|DICT|INTERRES
    45   22   86 1    
    46   23   24 2    
    47   23   25 1    
    48   25   26 1    
    49   25   27 1    
    50   25   87 1    
    51   26   88 1    
    52   26   89 1    
    53   26   90 1    
    54   27   28 am   BACKBONE|DICT|INTERRES
    55   27   91 1    
    56   28   29 2    
    57   28   30 1    
    58   30   31 1    
    59   30   32 1    
    60   30   92 1    
    61   31   93 1    
    62   31   94 1    
    63   31   95 1    
    64   32   33 am   BACKBONE|DICT|INTERRES
    65   32   96 1    
    66   33   34 2    
    67   33   35 1    
    68   35   36 1    
    69   35   37 1    
    70   35   97 1    
    71   36   98 1    
    72   36   99 1    
    73   36  100 1    
    74   37   38 am   BACKBONE|DICT|INTERRES
    75   37  101 1    
    76   38   39 2    
    77   38   40 1    
    78   40   41 1    
    79   40   42 1    
    80   40  102 1    
    81   41  103 1    
    82   41  104 1    
    83   41  105 1    
    84   42   43 am   BACKBONE|DICT|INTERRES
    85   42  106 1    
    86   43   44 2    
    87   43   45 1    
    88   45   46 1    
    89   45   49 1    
    90   45  107 1    
    91   46   47 1    
    92   46  108 1    
    93   46  109 1    
    94   47   48 1    
    95   48  110 1    
    96   48  111 1    
    97   49   50 am   BACKBONE|DICT|INTERRES
    98   49  112 1    
    99   50   51 2    
   100   50   52 1    
   101   52   53 1    
   102   52   54 1    
   103   52  113 1    
   104   53  114 1    
   105   53  115 1    
   106   53  116 1    
   107   54   55 am   BACKBONE|DICT|INTERRES
   108   54  117 1    
   109   55   56 2    
   110   55   57 1    
   111   57   58 1    
   112   57   59 1    
   113   57  118 1    
   114   58  119 1    
   115   58  120 1    
   116   58  121 1    
   117   59   60 am   BACKBONE|DICT|INTERRES
   118   59  122 1    
   119   60   61 2    
   120   60   62 1    
   121   62   63 1    
   122   62   64 1    
   123   62  123 1    
   124   63  124 1    
   125   63  125 1    
   126   63  126 1    
   127   64   65 am   BACKBONE|DICT|INTERRES
   128   64  127 1    
   129   65   66 2    
@<TRIPOS>SUBSTRUCTURE
     1 UNK         1 GROUP             0       ****    0 ROOT    
