@<TRIPOS>MOLECULE
3R135
127   129    1
SMALL
USER_CHARGES


@<TRIPOS>ATOM
      1 CA        -79.4864   27.4443  -78.1861 C.3       0 UNK        -0.1998 
      2 C         -79.4006   26.9721  -76.7438 C.2       0 UNK         0.4909 
      3 O         -78.5221   26.1756  -76.4075 O.2       0 UNK        -0.5240 
      4 N         -80.3006   27.4603  -75.8809 N.am      1 UNK        -0.4739 
      5 CA        -80.3797   27.0994  -74.4583 C.3       1 UNK         0.0864 
      6 C6        -81.3536   28.0179  -73.6791 C.3       11 UNK        -0.0881 
      7 S7        -80.8841   29.7833  -73.7977 S.3       11 UNK        -0.2682 
      8 C8        -80.6580   30.2770  -72.0578 C.3       11 UNK         0.0289 
      9 C9        -79.2821   29.9058  -71.5214 C.ar      11 UNK        -0.0687 
     10 C10       -79.0526   28.6262  -71.0156 C.ar      11 UNK        -0.0823 
     11 C11       -77.8002   28.2777  -70.5090 C.ar      11 UNK        -0.0830 
     12 C12       -76.7769   29.2261  -70.4795 C.ar      11 UNK        -0.1021 
     13 C13       -76.9841   30.5160  -70.9862 C.ar      11 UNK        -0.0753 
     14 C14       -78.2438   30.8449  -71.5041 C.ar      11 UNK        -0.0933 
     15 C15       -75.8898   31.5877  -70.9681 C.3       11 UNK         0.0166 
     16 S16       -74.1718   30.9680  -70.8542 S.3       11 UNK        -0.2615 
     17 C17       -74.0351   30.0635  -72.4303 C.3       11 UNK        -0.0865 
     18 CA        -72.6221   29.4675  -72.6967 C.3       10 UNK         0.0862 
     19 C         -72.3536   28.1148  -71.9779 C.2       10 UNK         0.5551 
     20 N         -72.6954   28.0078  -70.7019 N.am      10 UNK        -0.7319 
     21 O         -71.8207   27.1670  -72.5507 O.2       10 UNK        -0.5018 
     22 N         -72.3605   29.3793  -74.1394 N.am      10 UNK        -0.4509 
     23 C         -71.8824   30.3777  -74.8918 C.2       10 UNK         0.4899 
     24 O         -71.5612   31.4737  -74.4301 O.2       10 UNK        -0.4839 
     25 CA        -71.7915   30.1690  -76.4163 C.3       9 UNK         0.0222 
     26 CB        -70.4745   30.7151  -77.0095 C.3       9 UNK        -0.1966 
     27 N         -72.0746   28.8035  -76.8750 N.am      9 UNK        -0.4218 
     28 C         -71.3058   27.7080  -76.7647 C.2       9 UNK         0.5020 
     29 O         -70.1989   27.7023  -76.2250 O.2       9 UNK        -0.5274 
     30 CA        -71.8644   26.3954  -77.3535 C.3       8 UNK         0.0270 
     31 CB        -71.5059   25.1798  -76.4780 C.3       8 UNK        -0.1976 
     32 N         -73.3200   26.4541  -77.5032 N.am      8 UNK        -0.4313 
     33 C         -73.9872   26.6410  -78.6502 C.2       8 UNK         0.5041 
     34 O         -73.4437   26.7076  -79.7530 O.2       8 UNK        -0.5577 
     35 CA        -75.5185   26.8094  -78.5587 C.3       7 UNK         0.0284 
     36 CB        -76.2172   25.4787  -78.8806 C.3       7 UNK        -0.1958 
     37 N         -75.9893   27.3000  -77.2577 N.am      7 UNK        -0.4454 
     38 C         -75.6744   28.4852  -76.7171 C.2       7 UNK         0.5089 
     39 O         -75.0279   29.3494  -77.3086 O.2       7 UNK        -0.5125 
     40 CA        -76.0404   28.7073  -75.2361 C.3       6 UNK         0.0408 
     41 CB        -77.2910   29.5791  -75.0692 C.3       6 UNK        -0.1791 
     42 N         -76.1451   27.4751  -74.4333 N.am      6 UNK        -0.4762 
     43 C         -75.1057   26.6530  -74.2259 C.2       6 UNK         0.5007 
     44 O         -74.0122   26.8207  -74.7651 O.2       6 UNK        -0.5032 
     45 CA        -75.2918   25.4494  -73.2948 C.3       5 UNK         0.0783 
     46 C46       -75.6519   25.8254  -71.8248 C.3       11 UNK        -0.0857 
     47 S47       -77.4287   25.7170  -71.4061 S.3       11 UNK        -0.2512 
     48 C48       -77.5632   26.8663  -70.0075 C.3       11 UNK         0.0225 
     49 N         -76.1706   24.4423  -73.8960 N.am      5 UNK        -0.4615 
     50 C         -76.0930   23.1400  -73.5945 C.2       4 UNK         0.5053 
     51 O         -75.1677   22.6478  -72.9467 O.2       4 UNK        -0.5105 
     52 CA        -77.2426   22.2226  -74.0362 C.3       4 UNK         0.0263 
     53 CB        -78.1481   21.9036  -72.8343 C.3       4 UNK        -0.1981 
     54 N         -78.0720   22.7957  -75.0958 N.am      4 UNK        -0.4224 
     55 C         -77.9619   22.4812  -76.3942 C.2       3 UNK         0.4895 
     56 O         -77.0587   21.7746  -76.8448 O.2       3 UNK        -0.5091 
     57 CA        -79.0310   23.0364  -77.3590 C.3       3 UNK         0.0250 
     58 CB        -79.4143   22.0265  -78.4612 C.3       3 UNK        -0.1996 
     59 N         -80.2246   23.5663  -76.6870 N.am      3 UNK        -0.4254 
     60 C         -81.1359   22.9088  -75.9510 C.2       2 UNK         0.5004 
     61 O         -81.1464   21.6869  -75.7991 O.2       2 UNK        -0.5226 
     62 CA        -82.2027   23.7789  -75.2484 C.3       2 UNK         0.0269 
     63 CB        -82.6964   23.1547  -73.9251 C.3       2 UNK        -0.1926 
     64 N         -81.7763   25.1749  -75.0465 N.am      2 UNK        -0.4687 
     65 C         -80.7431   25.6085  -74.3032 C.2       1 UNK         0.5165 
     66 O         -80.0314   24.8718  -73.6217 O.2       1 UNK        -0.5079 
     67 H67       -80.3128   28.1381  -78.3385 H         1 UNK         0.0900 
     68 H68       -78.5645   27.9491  -78.4721 H         1 UNK         0.0900 
     69 H69       -79.6312   26.5936  -78.8511 H         1 UNK         0.0900 
     70 H70       -80.9785   28.1400  -76.1962 H         1 UNK         0.2959 
     71 H71       -79.3846   27.2277  -74.0265 H         1 UNK         0.1079 
     72 H72       -81.4101   27.7183  -72.6324 H         1 UNK         0.0837 
     73 H73       -82.3684   27.9178  -74.0684 H         1 UNK         0.0837 
     74 H74       -80.7997   31.3565  -71.9868 H         1 UNK         0.0685 
     75 H75       -81.4400   29.8329  -71.4400 H         1 UNK         0.0685 
     76 H76       -79.8440   27.8908  -71.0194 H         1 UNK         0.1434 
     77 H77       -75.8191   28.9473  -70.0649 H         1 UNK         0.1329 
     78 H78       -78.4199   31.8394  -71.8910 H         1 UNK         0.1335 
     79 H79       -76.0717   32.2459  -70.1177 H         1 UNK         0.0680 
     80 H80       -75.9696   32.2095  -71.8613 H         1 UNK         0.0680 
     81 H81       -74.2934   30.7797  -73.2119 H         1 UNK         0.1032 
     82 H82       -74.7978   29.2856  -72.4768 H         1 UNK         0.1032 
     83 H83       -71.8760   30.1458  -72.2786 H         1 UNK         0.0461 
     84 H84       -72.5094   27.1488  -70.2093 H         1 UNK         0.3453 
     85 H85       -73.1078   28.7927  -70.2200 H         1 UNK         0.3453 
     86 H86       -72.5629   28.4775  -74.5569 H         1 UNK         0.2984 
     87 H87       -72.5982   30.7738  -76.8328 H         1 UNK         0.0554 
     88 H88       -70.4356   30.5751  -78.0896 H         1 UNK         0.0847 
     89 H89       -69.5997   30.2312  -76.5748 H         1 UNK         0.0847 
     90 H90       -70.3749   31.7846  -76.8206 H         1 UNK         0.0847 
     91 H91       -72.9858   28.6944  -77.3062 H         1 UNK         0.3141 
     92 H92       -71.3923   26.2592  -78.3284 H         1 UNK         0.0743 
     93 H93       -71.9225   24.2593  -76.8871 H         1 UNK         0.0784 
     94 H94       -70.4253   25.0446  -76.4169 H         1 UNK         0.0784 
     95 H95       -71.8776   25.2929  -75.4586 H         1 UNK         0.0784 
     96 H96       -73.8356   26.4619  -76.6265 H         1 UNK         0.3213 
     97 H97       -75.8086   27.5425  -79.3144 H         1 UNK         0.0855 
     98 H98       -75.8688   25.0722  -79.8312 H         1 UNK         0.0814 
     99 H99       -77.2948   25.6090  -78.9664 H         1 UNK         0.0814 
    100 H100      -76.0269   24.7261  -78.1142 H         1 UNK         0.0814 
    101 H101      -76.5999   26.6848  -76.7289 H         1 UNK         0.3105 
    102 H102      -75.2100   29.2788  -74.8232 H         1 UNK         0.0547 
    103 H103      -78.1827   29.1043  -75.4655 H         1 UNK         0.0837 
    104 H104      -77.4745   29.8089  -74.0206 H         1 UNK         0.0837 
    105 H105      -77.1744   30.5296  -75.5911 H         1 UNK         0.0837 
    106 H106      -77.0219   27.2917  -73.9666 H         1 UNK         0.3020 
    107 H107      -74.2908   25.0109  -73.2512 H         1 UNK         0.1245 
    108 H108      -75.2740   26.8159  -71.5655 H         1 UNK         0.0781 
    109 H109      -75.1361   25.1390  -71.1515 H         1 UNK         0.0781 
    110 H110      -76.6701   26.8066  -69.3833 H         1 UNK         0.0836 
    111 H111      -78.3992   26.5606  -69.3768 H         1 UNK         0.0836 
    112 H112      -76.9482   24.7803  -74.4453 H         1 UNK         0.3022 
    113 H113      -76.7981   21.2846  -74.3759 H         1 UNK         0.0747 
    114 H114      -78.9497   21.2189  -73.1122 H         1 UNK         0.0793 
    115 H115      -77.5815   21.4315  -72.0305 H         1 UNK         0.0793 
    116 H116      -78.6054   22.8053  -72.4239 H         1 UNK         0.0793 
    117 H117      -78.8262   23.4043  -74.7989 H         1 UNK         0.3047 
    118 H118      -78.5656   23.8894  -77.8519 H         1 UNK         0.0822 
    119 H119      -79.8141   21.1021  -78.0435 H         1 UNK         0.0807 
    120 H120      -78.5470   21.7589  -79.0660 H         1 UNK         0.0807 
    121 H121      -80.1618   22.4412  -79.1374 H         1 UNK         0.0807 
    122 H122      -80.2941   24.5742  -76.6975 H         1 UNK         0.2946 
    123 H123      -83.0527   23.8123  -75.9323 H         1 UNK         0.1144 
    124 H124      -83.1602   22.1831  -74.1002 H         1 UNK         0.0793 
    125 H125      -81.8803   22.9993  -73.2188 H         1 UNK         0.0793 
    126 H126      -83.4432   23.7851  -73.4427 H         1 UNK         0.0793 
    127 H127      -82.2742   25.8630  -75.5952 H         1 UNK         0.2896 
@<TRIPOS>BOND
     1    1    2 1    
     2    1   67 1    
     3    1   68 1    
     4    1   69 1    
     5    2    3 2    
     6    2    4 am   BACKBONE|DICT|INTERRES
     7    4    5 1    
     8    4   70 1    
     9    5    6 1    
    10    5   65 1    
    11    5   71 1    
    12    6    7 1    
    13    6   72 1    
    14    6   73 1    
    15    7    8 1    
    16    8    9 1    
    17    8   74 1    
    18    8   75 1    
    19    9   10 ar   
    20    9   14 ar   
    21   10   11 ar   
    22   10   76 1    
    23   11   12 ar   
    24   11   48 1    
    25   12   13 ar   
    26   12   77 1    
    27   13   14 ar   
    28   13   15 1    
    29   14   78 1    
    30   15   16 1    
    31   15   79 1    
    32   15   80 1    
    33   16   17 1    
    34   17   18 1    
    35   17   81 1    
    36   17   82 1    
    37   18   19 1    
    38   18   22 1    
    39   18   83 1    
    40   19   20 am   BACKBONE|DICT|INTERRES
    41   19   21 2    
    42   20   84 1    
    43   20   85 1    
    44   22   23 am   BACKBONE|DICT|INTERRES
    45   22   86 1    
    46   23   24 2    
    47   23   25 1    
    48   25   26 1    
    49   25   27 1    
    50   25   87 1    
    51   26   88 1    
    52   26   89 1    
    53   26   90 1    
    54   27   28 am   BACKBONE|DICT|INTERRES
    55   27   91 1    
    56   28   29 2    
    57   28   30 1    
    58   30   31 1    
    59   30   32 1    
    60   30   92 1    
    61   31   93 1    
    62   31   94 1    
    63   31   95 1    
    64   32   33 am   BACKBONE|DICT|INTERRES
    65   32   96 1    
    66   33   34 2    
    67   33   35 1    
    68   35   36 1    
    69   35   37 1    
    70   35   97 1    
    71   36   98 1    
    72   36   99 1    
    73   36  100 1    
    74   37   38 am   BACKBONE|DICT|INTERRES
    75   37  101 1    
    76   38   39 2    
    77   38   40 1    
    78   40   41 1    
    79   40   42 1    
    80   40  102 1    
    81   41  103 1    
    82   41  104 1    
    83   41  105 1    
    84   42   43 am   BACKBONE|DICT|INTERRES
    85   42  106 1    
    86   43   44 2    
    87   43   45 1    
    88   45   46 1    
    89   45   49 1    
    90   45  107 1    
    91   46   47 1    
    92   46  108 1    
    93   46  109 1    
    94   47   48 1    
    95   48  110 1    
    96   48  111 1    
    97   49   50 am   BACKBONE|DICT|INTERRES
    98   49  112 1    
    99   50   51 2    
   100   50   52 1    
   101   52   53 1    
   102   52   54 1    
   103   52  113 1    
   104   53  114 1    
   105   53  115 1    
   106   53  116 1    
   107   54   55 am   BACKBONE|DICT|INTERRES
   108   54  117 1    
   109   55   56 2    
   110   55   57 1    
   111   57   58 1    
   112   57   59 1    
   113   57  118 1    
   114   58  119 1    
   115   58  120 1    
   116   58  121 1    
   117   59   60 am   BACKBONE|DICT|INTERRES
   118   59  122 1    
   119   60   61 2    
   120   60   62 1    
   121   62   63 1    
   122   62   64 1    
   123   62  123 1    
   124   63  124 1    
   125   63  125 1    
   126   63  126 1    
   127   64   65 am   BACKBONE|DICT|INTERRES
   128   64  127 1    
   129   65   66 2    
@<TRIPOS>SUBSTRUCTURE
     1 UNK         1 GROUP             0       ****    0 ROOT    
