@<TRIPOS>MOLECULE
3R135
127   129    1
SMALL
USER_CHARGES


@<TRIPOS>ATOM
      1 CA        -80.4041   25.9371  -69.7363 C.3       0 UNK        -0.1998 
      2 C         -81.4457   25.7540  -70.8289 C.2       0 UNK         0.4909 
      3 O         -82.3771   24.9641  -70.6682 O.2       0 UNK        -0.5240 
      4 N         -81.2983   26.4907  -71.9368 N.am      1 UNK        -0.4739 
      5 CA        -82.1448   26.3862  -73.1266 C.3       1 UNK         0.0864 
      6 C6        -82.0999   27.6796  -73.9859 C.3       11 UNK        -0.0881 
      7 S7        -80.4266   28.1693  -74.5411 S.3       11 UNK        -0.2682 
      8 C8        -80.1145   29.6942  -73.5863 C.3       11 UNK         0.0289 
      9 C9        -78.7162   29.6669  -72.9919 C.ar      11 UNK        -0.0687 
     10 C10       -78.4666   28.8742  -71.8710 C.ar      11 UNK        -0.0823 
     11 C11       -77.1716   28.7335  -71.3723 C.ar      11 UNK        -0.0830 
     12 C12       -76.1297   29.4538  -71.9585 C.ar      11 UNK        -0.1021 
     13 C13       -76.3699   30.2884  -73.0551 C.ar      11 UNK        -0.0753 
     14 C14       -77.6668   30.3867  -73.5734 C.ar      11 UNK        -0.0933 
     15 C15       -75.2110   31.0138  -73.7239 C.3       11 UNK         0.0166 
     16 S16       -74.3463   32.1322  -72.5741 S.3       11 UNK        -0.2615 
     17 C17       -72.9573   32.7900  -73.5713 C.3       11 UNK        -0.0865 
     18 CA        -72.2170   31.7770  -74.4911 C.3       10 UNK         0.0862 
     19 C         -71.0358   32.4710  -75.2323 C.2       10 UNK         0.5551 
     20 N         -69.7889   32.0644  -75.0274 N.am      10 UNK        -0.7319 
     21 O         -71.2590   33.3972  -76.0080 O.2       10 UNK        -0.5018 
     22 N         -71.8650   30.5389  -73.7730 N.am      10 UNK        -0.4509 
     23 C         -71.5940   29.3647  -74.3580 C.2       10 UNK         0.4899 
     24 O         -71.5174   29.2169  -75.5783 O.2       10 UNK        -0.4839 
     25 CA        -71.3529   28.1612  -73.4289 C.3       9 UNK         0.0222 
     26 CB        -72.0633   28.2843  -72.0652 C.3       9 UNK        -0.1966 
     27 N         -71.8134   26.9344  -74.0798 N.am      9 UNK        -0.4218 
     28 C         -71.0249   25.9416  -74.5082 C.2       9 UNK         0.5020 
     29 O         -69.7967   25.9406  -74.4037 O.2       9 UNK        -0.5274 
     30 CA        -71.7195   24.7209  -75.1345 C.3       8 UNK         0.0270 
     31 CB        -72.2729   23.7979  -74.0362 C.3       8 UNK        -0.1976 
     32 N         -72.7900   25.0675  -76.0728 N.am      8 UNK        -0.4313 
     33 C         -72.5928   25.6009  -77.2872 C.2       8 UNK         0.5041 
     34 O         -71.4820   25.8757  -77.7435 O.2       8 UNK        -0.5577 
     35 CA        -73.8392   25.8434  -78.1561 C.3       7 UNK         0.0284 
     36 CB        -74.2959   24.5416  -78.8350 C.3       7 UNK        -0.1958 
     37 N         -74.9484   26.4102  -77.3910 N.am      7 UNK        -0.4454 
     38 C         -75.0153   27.6842  -76.9844 C.2       7 UNK         0.5089 
     39 O         -74.2004   28.5495  -77.3016 O.2       7 UNK        -0.5125 
     40 CA        -76.1878   28.0620  -76.0631 C.3       6 UNK         0.0408 
     41 CB        -77.3951   28.5424  -76.8826 C.3       6 UNK        -0.1791 
     42 N         -76.5875   26.9840  -75.1521 N.am      6 UNK        -0.4762 
     43 C         -75.8070   26.4909  -74.1768 C.2       6 UNK         0.5007 
     44 O         -74.6751   26.9118  -73.9346 O.2       6 UNK        -0.5032 
     45 CA        -76.3341   25.2596  -73.4061 C.3       5 UNK         0.0783 
     46 C46       -77.1590   25.6219  -72.1467 C.3       11 UNK        -0.0857 
     47 S47       -76.0944   26.2298  -70.7856 S.3       11 UNK        -0.2512 
     48 C48       -76.9005   27.7701  -70.2277 C.3       11 UNK         0.0225 
     49 N         -77.0492   24.3319  -74.2907 N.am      5 UNK        -0.4615 
     50 C         -76.4333   23.6040  -75.2333 C.2       4 UNK         0.5053 
     51 O         -75.2219   23.6500  -75.4440 O.2       4 UNK        -0.5105 
     52 CA        -77.3098   22.7026  -76.1142 C.3       4 UNK         0.0263 
     53 CB        -77.7253   21.4346  -75.3517 C.3       4 UNK        -0.1981 
     54 N         -78.5024   23.3685  -76.6389 N.am      4 UNK        -0.4224 
     55 C         -78.5265   24.4813  -77.3826 C.2       3 UNK         0.4895 
     56 O         -77.5156   25.1156  -77.6797 O.2       3 UNK        -0.5091 
     57 CA        -79.8929   24.9937  -77.8821 C.3       3 UNK         0.0250 
     58 CB        -80.1508   24.5328  -79.3294 C.3       3 UNK        -0.1996 
     59 N         -81.0417   24.6916  -77.0125 N.am      3 UNK        -0.4254 
     60 C         -81.5637   23.5018  -76.6747 C.2       2 UNK         0.5004 
     61 O         -81.1423   22.4275  -77.1054 O.2       2 UNK        -0.5226 
     62 CA        -82.7199   23.5078  -75.6525 C.3       2 UNK         0.0269 
     63 CB        -82.7473   22.2211  -74.7991 C.3       2 UNK        -0.1926 
     64 N         -82.7577   24.6945  -74.7820 N.am      2 UNK        -0.4687 
     65 C         -81.7984   25.1235  -73.9454 C.2       1 UNK         0.5165 
     66 O         -80.6876   24.5929  -73.8350 O.2       1 UNK        -0.5079 
     67 H67       -79.4469   25.5211  -70.0486 H         1 UNK         0.0900 
     68 H68       -80.7113   25.4285  -68.8226 H         1 UNK         0.0900 
     69 H69       -80.2705   26.9926  -69.5016 H         1 UNK         0.0900 
     70 H70       -80.4887   27.0795  -72.0501 H         1 UNK         0.2959 
     71 H71       -83.1749   26.2625  -72.7833 H         1 UNK         0.1079 
     72 H72       -82.5538   28.4976  -73.4254 H         1 UNK         0.0837 
     73 H73       -82.7281   27.5714  -74.8720 H         1 UNK         0.0837 
     74 H74       -80.2424   30.5583  -74.2399 H         1 UNK         0.0685 
     75 H75       -80.8397   29.8074  -72.7797 H         1 UNK         0.0685 
     76 H76       -79.2758   28.3268  -71.4142 H         1 UNK         0.1434 
     77 H77       -75.1257   29.3465  -71.5748 H         1 UNK         0.1329 
     78 H78       -77.8546   30.9981  -74.4453 H         1 UNK         0.1335 
     79 H79       -74.5227   30.2560  -74.0951 H         1 UNK         0.0680 
     80 H80       -75.5512   31.5838  -74.5898 H         1 UNK         0.0680 
     81 H81       -72.2496   33.2435  -72.8746 H         1 UNK         0.1032 
     82 H82       -73.3485   33.6151  -74.1698 H         1 UNK         0.1032 
     83 H83       -72.9124   31.4944  -75.2836 H         1 UNK         0.0461 
     84 H84       -69.6007   31.3003  -74.3989 H         1 UNK         0.3453 
     85 H85       -69.0324   32.5191  -75.5140 H         1 UNK         0.3453 
     86 H86       -71.8981   30.5890  -72.7657 H         1 UNK         0.2984 
     87 H87       -70.2781   28.1167  -73.2448 H         1 UNK         0.0554 
     88 H88       -71.9212   27.3839  -71.4671 H         1 UNK         0.0847 
     89 H89       -73.1366   28.4284  -72.1866 H         1 UNK         0.0847 
     90 H90       -71.6747   29.1159  -71.4769 H         1 UNK         0.0847 
     91 H91       -72.8200   26.8637  -74.2189 H         1 UNK         0.3141 
     92 H92       -70.9626   24.1615  -75.6886 H         1 UNK         0.0743 
     93 H93       -73.0565   24.2863  -73.4563 H         1 UNK         0.0784 
     94 H94       -72.6895   22.8835  -74.4591 H         1 UNK         0.0784 
     95 H95       -71.4865   23.5038  -73.3399 H         1 UNK         0.0784 
     96 H96       -73.7340   24.7957  -75.8085 H         1 UNK         0.3213 
     97 H97       -73.5654   26.5532  -78.9400 H         1 UNK         0.0855 
     98 H98       -73.4928   24.1128  -79.4357 H         1 UNK         0.0814 
     99 H99       -75.1412   24.7184  -79.5005 H         1 UNK         0.0814 
    100 H100      -74.5981   23.7878  -78.1075 H         1 UNK         0.0814 
    101 H101      -75.7270   25.7945  -77.1745 H         1 UNK         0.3105 
    102 H102      -75.8512   28.8976  -75.4523 H         1 UNK         0.0547 
    103 H103      -77.1067   29.3411  -77.5671 H         1 UNK         0.0837 
    104 H104      -77.8273   27.7422  -77.4823 H         1 UNK         0.0837 
    105 H105      -78.1761   28.9428  -76.2385 H         1 UNK         0.0837 
    106 H106      -77.4873   26.5574  -75.3163 H         1 UNK         0.3020 
    107 H107      -75.4486   24.7222  -73.0579 H         1 UNK         0.1245 
    108 H108      -77.6634   24.7304  -71.7706 H         1 UNK         0.0781 
    109 H109      -77.9547   26.3229  -72.3924 H         1 UNK         0.0781 
    110 H110      -76.2585   28.2558  -69.4915 H         1 UNK         0.0836 
    111 H111      -77.8228   27.5203  -69.7031 H         1 UNK         0.0836 
    112 H112      -78.0527   24.2617  -74.1844 H         1 UNK         0.3022 
    113 H113      -76.7063   22.4009  -76.9727 H         1 UNK         0.0747 
    114 H114      -78.2522   20.7365  -76.0026 H         1 UNK         0.0793 
    115 H115      -76.8529   20.9122  -74.9562 H         1 UNK         0.0793 
    116 H116      -78.3796   21.6646  -74.5096 H         1 UNK         0.0793 
    117 H117      -79.3895   22.8898  -76.5140 H         1 UNK         0.3047 
    118 H118      -79.8186   26.0824  -77.8948 H         1 UNK         0.0822 
    119 H119      -81.0743   24.9576  -79.7227 H         1 UNK         0.0807 
    120 H120      -80.2206   23.4474  -79.4064 H         1 UNK         0.0807 
    121 H121      -79.3416   24.8513  -79.9882 H         1 UNK         0.0807 
    122 H122      -81.4493   25.4986  -76.5614 H         1 UNK         0.2946 
    123 H123      -83.6356   23.5293  -76.2459 H         1 UNK         0.1144 
    124 H124      -82.8647   21.3351  -75.4245 H         1 UNK         0.0793 
    125 H125      -83.5798   22.2288  -74.0957 H         1 UNK         0.0793 
    126 H126      -81.8268   22.0957  -74.2277 H         1 UNK         0.0793 
    127 H127      -83.6228   25.2175  -74.8162 H         1 UNK         0.2896 
@<TRIPOS>BOND
     1    1    2 1    
     2    1   67 1    
     3    1   68 1    
     4    1   69 1    
     5    2    3 2    
     6    2    4 am   BACKBONE|DICT|INTERRES
     7    4    5 1    
     8    4   70 1    
     9    5    6 1    
    10    5   65 1    
    11    5   71 1    
    12    6    7 1    
    13    6   72 1    
    14    6   73 1    
    15    7    8 1    
    16    8    9 1    
    17    8   74 1    
    18    8   75 1    
    19    9   10 ar   
    20    9   14 ar   
    21   10   11 ar   
    22   10   76 1    
    23   11   12 ar   
    24   11   48 1    
    25   12   13 ar   
    26   12   77 1    
    27   13   14 ar   
    28   13   15 1    
    29   14   78 1    
    30   15   16 1    
    31   15   79 1    
    32   15   80 1    
    33   16   17 1    
    34   17   18 1    
    35   17   81 1    
    36   17   82 1    
    37   18   19 1    
    38   18   22 1    
    39   18   83 1    
    40   19   20 am   BACKBONE|DICT|INTERRES
    41   19   21 2    
    42   20   84 1    
    43   20   85 1    
    44   22   23 am   BACKBONE|DICT|INTERRES
    45   22   86 1    
    46   23   24 2    
    47   23   25 1    
    48   25   26 1    
    49   25   27 1    
    50   25   87 1    
    51   26   88 1    
    52   26   89 1    
    53   26   90 1    
    54   27   28 am   BACKBONE|DICT|INTERRES
    55   27   91 1    
    56   28   29 2    
    57   28   30 1    
    58   30   31 1    
    59   30   32 1    
    60   30   92 1    
    61   31   93 1    
    62   31   94 1    
    63   31   95 1    
    64   32   33 am   BACKBONE|DICT|INTERRES
    65   32   96 1    
    66   33   34 2    
    67   33   35 1    
    68   35   36 1    
    69   35   37 1    
    70   35   97 1    
    71   36   98 1    
    72   36   99 1    
    73   36  100 1    
    74   37   38 am   BACKBONE|DICT|INTERRES
    75   37  101 1    
    76   38   39 2    
    77   38   40 1    
    78   40   41 1    
    79   40   42 1    
    80   40  102 1    
    81   41  103 1    
    82   41  104 1    
    83   41  105 1    
    84   42   43 am   BACKBONE|DICT|INTERRES
    85   42  106 1    
    86   43   44 2    
    87   43   45 1    
    88   45   46 1    
    89   45   49 1    
    90   45  107 1    
    91   46   47 1    
    92   46  108 1    
    93   46  109 1    
    94   47   48 1    
    95   48  110 1    
    96   48  111 1    
    97   49   50 am   BACKBONE|DICT|INTERRES
    98   49  112 1    
    99   50   51 2    
   100   50   52 1    
   101   52   53 1    
   102   52   54 1    
   103   52  113 1    
   104   53  114 1    
   105   53  115 1    
   106   53  116 1    
   107   54   55 am   BACKBONE|DICT|INTERRES
   108   54  117 1    
   109   55   56 2    
   110   55   57 1    
   111   57   58 1    
   112   57   59 1    
   113   57  118 1    
   114   58  119 1    
   115   58  120 1    
   116   58  121 1    
   117   59   60 am   BACKBONE|DICT|INTERRES
   118   59  122 1    
   119   60   61 2    
   120   60   62 1    
   121   62   63 1    
   122   62   64 1    
   123   62  123 1    
   124   63  124 1    
   125   63  125 1    
   126   63  126 1    
   127   64   65 am   BACKBONE|DICT|INTERRES
   128   64  127 1    
   129   65   66 2    
@<TRIPOS>SUBSTRUCTURE
     1 UNK         1 GROUP             0       ****    0 ROOT    
