@<TRIPOS>MOLECULE
3R135
127   129    1
SMALL
USER_CHARGES


@<TRIPOS>ATOM
      1 CA        -81.0989   29.7141  -78.1493 C.3       0 UNK        -0.1998 
      2 C         -80.1686   28.7502  -77.4296 C.2       0 UNK         0.4909 
      3 O         -79.1720   28.3179  -78.0045 O.2       0 UNK        -0.5240 
      4 N         -80.4869   28.4086  -76.1747 N.am      1 UNK        -0.4739 
      5 CA        -79.6974   27.5103  -75.3193 C.3       1 UNK         0.0864 
      6 C6        -80.0584   27.6927  -73.8226 C.3       11 UNK        -0.0881 
      7 S7        -79.8885   29.4139  -73.2174 S.3       11 UNK        -0.2682 
      8 C8        -78.1505   29.8516  -73.5691 C.3       11 UNK         0.0289 
      9 C9        -77.1765   29.2282  -72.5784 C.ar      11 UNK        -0.0687 
     10 C10       -76.8536   27.8718  -72.6577 C.ar      11 UNK        -0.0823 
     11 C11       -75.9819   27.2863  -71.7358 C.ar      11 UNK        -0.0830 
     12 C12       -75.3995   28.0820  -70.7443 C.ar      11 UNK        -0.1021 
     13 C13       -75.6950   29.4476  -70.6677 C.ar      11 UNK        -0.0753 
     14 C14       -76.5872   30.0124  -71.5837 C.ar      11 UNK        -0.0933 
     15 C15       -75.0878   30.3175  -69.5780 C.3       11 UNK         0.0166 
     16 S16       -73.5967   31.1828  -70.1594 S.3       11 UNK        -0.2615 
     17 C17       -72.3163   29.9179  -69.8643 C.3       11 UNK        -0.0865 
     18 CA        -71.2033   29.9195  -70.9408 C.3       10 UNK         0.0862 
     19 C         -70.0674   28.9431  -70.5223 C.2       10 UNK         0.5551 
     20 N         -69.0394   29.4399  -69.8481 N.am      10 UNK        -0.7319 
     21 O         -70.1366   27.7388  -70.7604 O.2       10 UNK        -0.5018 
     22 N         -71.7413   29.6367  -72.2817 N.am      10 UNK        -0.4509 
     23 C         -71.0189   29.6396  -73.4100 C.2       10 UNK         0.4899 
     24 O         -69.8345   29.9725  -73.4706 O.2       10 UNK        -0.4839 
     25 CA        -71.7296   29.1927  -74.6965 C.3       9 UNK         0.0222 
     26 CB        -71.6682   27.6639  -74.8387 C.3       9 UNK        -0.1966 
     27 N         -73.1217   29.6340  -74.7966 N.am      9 UNK        -0.4218 
     28 C         -73.5176   30.8987  -74.9905 C.2       9 UNK         0.5020 
     29 O         -72.7530   31.8652  -75.0030 O.2       9 UNK        -0.5274 
     30 CA        -75.0144   31.0910  -75.3062 C.3       8 UNK         0.0270 
     31 CB        -75.4313   32.5717  -75.3727 C.3       8 UNK        -0.1976 
     32 N         -75.3582   30.4323  -76.5732 N.am      8 UNK        -0.4313 
     33 C         -75.5600   29.1158  -76.7001 C.2       8 UNK         0.5041 
     34 O         -75.5925   28.3469  -75.7355 O.2       8 UNK        -0.5577 
     35 CA        -75.6704   28.5451  -78.1190 C.3       7 UNK         0.0284 
     36 CB        -74.2930   28.5536  -78.8128 C.3       7 UNK        -0.1958 
     37 N         -76.1644   27.1810  -77.9771 N.am      7 UNK        -0.4454 
     38 C         -76.5801   26.3418  -78.9302 C.2       7 UNK         0.5089 
     39 O         -76.5534   26.6040  -80.1338 O.2       7 UNK        -0.5125 
     40 CA        -77.1538   24.9887  -78.4525 C.3       6 UNK         0.0408 
     41 CB        -76.8779   23.8367  -79.4412 C.3       6 UNK        -0.1791 
     42 N         -76.7707   24.6261  -77.0774 N.am      6 UNK        -0.4762 
     43 C         -75.5412   24.3280  -76.6232 C.2       6 UNK         0.5007 
     44 O         -74.5514   24.2310  -77.3483 O.2       6 UNK        -0.5032 
     45 CA        -75.3682   24.1381  -75.1032 C.3       5 UNK         0.0783 
     46 C46       -74.9054   25.4717  -74.4660 C.3       11 UNK        -0.0857 
     47 S47       -74.2844   25.3069  -72.7593 S.3       11 UNK        -0.2512 
     48 C48       -75.7334   25.7837  -71.7661 C.3       11 UNK         0.0225 
     49 N         -76.6001   23.6266  -74.4817 N.am      5 UNK        -0.4615 
     50 C         -76.6662   22.4952  -73.7671 C.2       4 UNK         0.5053 
     51 O         -75.7127   21.7388  -73.5820 O.2       4 UNK        -0.5105 
     52 CA        -78.0321   22.1238  -73.1804 C.3       4 UNK         0.0263 
     53 CB        -78.5937   23.2082  -72.2402 C.3       4 UNK        -0.1981 
     54 N         -78.9697   21.8430  -74.2624 N.am      4 UNK        -0.4224 
     55 C         -80.0266   21.0248  -74.1734 C.2       3 UNK         0.4895 
     56 O         -80.3254   20.4046  -73.1509 O.2       3 UNK        -0.5091 
     57 CA        -80.8852   20.8631  -75.4465 C.3       3 UNK         0.0250 
     58 CB        -82.3307   20.4122  -75.1425 C.3       3 UNK        -0.1996 
     59 N         -80.8740   22.0512  -76.3129 N.am      3 UNK        -0.4254 
     60 C         -81.3067   23.2825  -76.0009 C.2       2 UNK         0.5004 
     61 O         -81.8594   23.5846  -74.9406 O.2       2 UNK        -0.5226 
     62 CA        -81.0860   24.3554  -77.0788 C.3       2 UNK         0.0269 
     63 CB        -82.3017   24.4361  -78.0159 C.3       2 UNK        -0.1926 
     64 N         -80.8312   25.6833  -76.5172 N.am      2 UNK        -0.4687 
     65 C         -79.7949   26.0276  -75.7383 C.2       1 UNK         0.5165 
     66 O         -78.9103   25.2417  -75.3818 O.2       1 UNK        -0.5079 
     67 H67       -81.9361   30.0188  -77.5217 H         1 UNK         0.0900 
     68 H68       -80.5533   30.6096  -78.4453 H         1 UNK         0.0900 
     69 H69       -81.5001   29.2467  -79.0482 H         1 UNK         0.0900 
     70 H70       -81.3057   28.8126  -75.7417 H         1 UNK         0.2959 
     71 H71       -78.6453   27.7598  -75.4598 H         1 UNK         0.1079 
     72 H72       -79.4710   27.0324  -73.1842 H         1 UNK         0.0837 
     73 H73       -81.0955   27.3946  -73.6565 H         1 UNK         0.0837 
     74 H74       -78.0699   30.9389  -73.5269 H         1 UNK         0.0685 
     75 H75       -77.8748   29.5882  -74.5886 H         1 UNK         0.0685 
     76 H76       -77.2988   27.2653  -73.4300 H         1 UNK         0.1434 
     77 H77       -74.7339   27.6314  -70.0212 H         1 UNK         0.1329 
     78 H78       -76.8252   31.0653  -71.5168 H         1 UNK         0.1335 
     79 H79       -74.8563   29.7247  -68.6916 H         1 UNK         0.0680 
     80 H80       -75.8184   31.0620  -69.2577 H         1 UNK         0.0680 
     81 H81       -71.8924   30.1119  -68.8768 H         1 UNK         0.1032 
     82 H82       -72.7735   28.9295  -69.8042 H         1 UNK         0.1032 
     83 H83       -70.7792   30.9249  -70.9832 H         1 UNK         0.0461 
     84 H84       -68.9791   30.4246  -69.6396 H         1 UNK         0.3453 
     85 H85       -68.3012   28.8200  -69.5528 H         1 UNK         0.3453 
     86 H86       -72.7103   29.3582  -72.3248 H         1 UNK         0.2984 
     87 H87       -71.1875   29.6277  -75.5389 H         1 UNK         0.0554 
     88 H88       -70.6356   27.3126  -74.8232 H         1 UNK         0.0847 
     89 H89       -72.1083   27.3320  -75.7793 H         1 UNK         0.0847 
     90 H90       -72.1917   27.1635  -74.0235 H         1 UNK         0.0847 
     91 H91       -73.8386   28.9157  -74.8475 H         1 UNK         0.3141 
     92 H92       -75.5726   30.6288  -74.4914 H         1 UNK         0.0743 
     93 H93       -74.9159   33.1035  -76.1734 H         1 UNK         0.0784 
     94 H94       -76.5041   32.6731  -75.5376 H         1 UNK         0.0784 
     95 H95       -75.1987   33.0831  -74.4376 H         1 UNK         0.0784 
     96 H96       -75.3041   31.0012  -77.4063 H         1 UNK         0.3213 
     97 H97       -76.3947   29.1308  -78.6883 H         1 UNK         0.0855 
     98 H98       -73.5630   27.9610  -78.2595 H         1 UNK         0.0814 
     99 H99       -73.8965   29.5661  -78.8952 H         1 UNK         0.0814 
    100 H100      -74.3494   28.1520  -79.8243 H         1 UNK         0.0814 
    101 H101      -76.2324   26.8987  -77.0067 H         1 UNK         0.3105 
    102 H102      -78.2335   25.1363  -78.4254 H         1 UNK         0.0547 
    103 H103      -77.3006   22.8973  -79.0858 H         1 UNK         0.0837 
    104 H104      -75.8105   23.6863  -79.6031 H         1 UNK         0.0837 
    105 H105      -77.3240   24.0431  -80.4147 H         1 UNK         0.0837 
    106 H106      -77.5199   24.7270  -76.3968 H         1 UNK         0.3020 
    107 H107      -74.5584   23.4137  -74.9880 H         1 UNK         0.1245 
    108 H108      -75.7170   26.1923  -74.4922 H         1 UNK         0.0781 
    109 H109      -74.0963   25.9156  -75.0487 H         1 UNK         0.0781 
    110 H110      -75.5922   25.4164  -70.7486 H         1 UNK         0.0836 
    111 H111      -76.6149   25.2720  -72.1481 H         1 UNK         0.0836 
    112 H112      -77.4364   24.1902  -74.5955 H         1 UNK         0.3022 
    113 H113      -77.8888   21.2119  -72.5960 H         1 UNK         0.0747 
    114 H114      -79.5255   22.8820  -71.7779 H         1 UNK         0.0793 
    115 H115      -77.8952   23.4215  -71.4308 H         1 UNK         0.0793 
    116 H116      -78.7987   24.1421  -72.7646 H         1 UNK         0.0793 
    117 H117      -78.7766   22.2873  -75.1485 H         1 UNK         0.3047 
    118 H118      -80.4113   20.0658  -76.0212 H         1 UNK         0.0822 
    119 H119      -82.9119   20.2977  -76.0575 H         1 UNK         0.0807 
    120 H120      -82.8513   21.1235  -74.5007 H         1 UNK         0.0807 
    121 H121      -82.3413   19.4484  -74.6320 H         1 UNK         0.0807 
    122 H122      -80.4608   21.9090  -77.2248 H         1 UNK         0.2946 
    123 H123      -80.2112   24.0758  -77.6685 H         1 UNK         0.1144 
    124 H124      -82.1356   25.1506  -78.8226 H         1 UNK         0.0793 
    125 H125      -83.2032   24.7368  -77.4802 H         1 UNK         0.0793 
    126 H126      -82.5061   23.4697  -78.4792 H         1 UNK         0.0793 
    127 H127      -81.5036   26.4023  -76.7397 H         1 UNK         0.2896 
@<TRIPOS>BOND
     1    1    2 1    
     2    1   67 1    
     3    1   68 1    
     4    1   69 1    
     5    2    3 2    
     6    2    4 am   BACKBONE|DICT|INTERRES
     7    4    5 1    
     8    4   70 1    
     9    5    6 1    
    10    5   65 1    
    11    5   71 1    
    12    6    7 1    
    13    6   72 1    
    14    6   73 1    
    15    7    8 1    
    16    8    9 1    
    17    8   74 1    
    18    8   75 1    
    19    9   10 ar   
    20    9   14 ar   
    21   10   11 ar   
    22   10   76 1    
    23   11   12 ar   
    24   11   48 1    
    25   12   13 ar   
    26   12   77 1    
    27   13   14 ar   
    28   13   15 1    
    29   14   78 1    
    30   15   16 1    
    31   15   79 1    
    32   15   80 1    
    33   16   17 1    
    34   17   18 1    
    35   17   81 1    
    36   17   82 1    
    37   18   19 1    
    38   18   22 1    
    39   18   83 1    
    40   19   20 am   BACKBONE|DICT|INTERRES
    41   19   21 2    
    42   20   84 1    
    43   20   85 1    
    44   22   23 am   BACKBONE|DICT|INTERRES
    45   22   86 1    
    46   23   24 2    
    47   23   25 1    
    48   25   26 1    
    49   25   27 1    
    50   25   87 1    
    51   26   88 1    
    52   26   89 1    
    53   26   90 1    
    54   27   28 am   BACKBONE|DICT|INTERRES
    55   27   91 1    
    56   28   29 2    
    57   28   30 1    
    58   30   31 1    
    59   30   32 1    
    60   30   92 1    
    61   31   93 1    
    62   31   94 1    
    63   31   95 1    
    64   32   33 am   BACKBONE|DICT|INTERRES
    65   32   96 1    
    66   33   34 2    
    67   33   35 1    
    68   35   36 1    
    69   35   37 1    
    70   35   97 1    
    71   36   98 1    
    72   36   99 1    
    73   36  100 1    
    74   37   38 am   BACKBONE|DICT|INTERRES
    75   37  101 1    
    76   38   39 2    
    77   38   40 1    
    78   40   41 1    
    79   40   42 1    
    80   40  102 1    
    81   41  103 1    
    82   41  104 1    
    83   41  105 1    
    84   42   43 am   BACKBONE|DICT|INTERRES
    85   42  106 1    
    86   43   44 2    
    87   43   45 1    
    88   45   46 1    
    89   45   49 1    
    90   45  107 1    
    91   46   47 1    
    92   46  108 1    
    93   46  109 1    
    94   47   48 1    
    95   48  110 1    
    96   48  111 1    
    97   49   50 am   BACKBONE|DICT|INTERRES
    98   49  112 1    
    99   50   51 2    
   100   50   52 1    
   101   52   53 1    
   102   52   54 1    
   103   52  113 1    
   104   53  114 1    
   105   53  115 1    
   106   53  116 1    
   107   54   55 am   BACKBONE|DICT|INTERRES
   108   54  117 1    
   109   55   56 2    
   110   55   57 1    
   111   57   58 1    
   112   57   59 1    
   113   57  118 1    
   114   58  119 1    
   115   58  120 1    
   116   58  121 1    
   117   59   60 am   BACKBONE|DICT|INTERRES
   118   59  122 1    
   119   60   61 2    
   120   60   62 1    
   121   62   63 1    
   122   62   64 1    
   123   62  123 1    
   124   63  124 1    
   125   63  125 1    
   126   63  126 1    
   127   64   65 am   BACKBONE|DICT|INTERRES
   128   64  127 1    
   129   65   66 2    
@<TRIPOS>SUBSTRUCTURE
     1 UNK         1 GROUP             0       ****    0 ROOT    
