@<TRIPOS>MOLECULE
3R135
127   129    1
SMALL
USER_CHARGES


@<TRIPOS>ATOM
      1 CA        -86.2552   28.2581  -76.4504 C.3       0 UNK        -0.1998 
      2 C         -84.7672   28.5746  -76.4364 C.2       0 UNK         0.4909 
      3 O         -84.2651   29.1949  -77.3741 O.2       0 UNK        -0.5240 
      4 N         -84.0591   28.1550  -75.3785 N.am      1 UNK        -0.4739 
      5 CA        -82.6117   28.3461  -75.2097 C.3       1 UNK         0.0864 
      6 C6        -82.1960   28.1221  -73.7324 C.3       11 UNK        -0.0881 
      7 S7        -80.6502   28.9838  -73.2976 S.3       11 UNK        -0.2682 
      8 C8        -80.1062   28.0140  -71.8482 C.3       11 UNK         0.0289 
      9 C9        -78.6920   28.3175  -71.3437 C.ar      11 UNK        -0.0687 
     10 C10       -78.0499   27.3594  -70.5501 C.ar      11 UNK        -0.0823 
     11 C11       -76.7680   27.5911  -70.0414 C.ar      11 UNK        -0.0830 
     12 C12       -76.1316   28.8014  -70.3139 C.ar      11 UNK        -0.1021 
     13 C13       -76.7414   29.7599  -71.1247 C.ar      11 UNK        -0.0753 
     14 C14       -78.0240   29.5185  -71.6280 C.ar      11 UNK        -0.0933 
     15 C15       -76.0100   31.0542  -71.4524 C.3       11 UNK         0.0166 
     16 S16       -74.8631   30.8472  -72.8539 S.3       11 UNK        -0.2615 
     17 C17       -73.5497   29.8170  -72.1072 C.3       11 UNK        -0.0865 
     18 CA        -72.1771   29.9586  -72.8140 C.3       10 UNK         0.0862 
     19 C         -71.0595   29.1715  -72.0648 C.2       10 UNK         0.5551 
     20 N         -70.2678   28.3303  -72.7216 N.am      10 UNK        -0.7319 
     21 O         -70.8951   29.3412  -70.8592 O.2       10 UNK        -0.5018 
     22 N         -72.2681   29.6420  -74.2464 N.am      10 UNK        -0.4509 
     23 C         -71.4928   30.1815  -75.1935 C.2       10 UNK         0.4899 
     24 O         -70.6457   31.0499  -74.9760 O.2       10 UNK        -0.4839 
     25 CA        -71.7023   29.6468  -76.6208 C.3       9 UNK         0.0222 
     26 CB        -70.5973   30.0901  -77.6038 C.3       9 UNK        -0.1966 
     27 N         -71.8860   28.1912  -76.6612 N.am      9 UNK        -0.4218 
     28 C         -71.0138   27.2420  -76.2844 C.2       9 UNK         0.5020 
     29 O         -69.9183   27.4966  -75.7810 O.2       9 UNK        -0.5274 
     30 CA        -71.4133   25.7609  -76.4796 C.3       8 UNK         0.0270 
     31 CB        -71.1100   24.9303  -75.2193 C.3       8 UNK        -0.1976 
     32 N         -72.8174   25.5616  -76.8488 N.am      8 UNK        -0.4313 
     33 C         -73.3571   25.7938  -78.0532 C.2       8 UNK         0.5041 
     34 O         -72.7021   26.1105  -79.0461 O.2       8 UNK        -0.5577 
     35 CA        -74.8933   25.7325  -78.1491 C.3       7 UNK         0.0284 
     36 CB        -75.3516   24.3329  -78.5847 C.3       7 UNK        -0.1958 
     37 N         -75.5690   26.1132  -76.9013 N.am      7 UNK        -0.4454 
     38 C         -75.4737   27.3167  -76.3142 C.2       7 UNK         0.5089 
     39 O         -74.8277   28.2545  -76.7813 O.2       7 UNK        -0.5125 
     40 CA        -76.1723   27.4895  -74.9580 C.3       6 UNK         0.0408 
     41 CB        -77.6599   27.8047  -75.1496 C.3       6 UNK        -0.1791 
     42 N         -76.0254   26.3068  -74.1094 N.am      6 UNK        -0.4762 
     43 C         -74.8938   25.9692  -73.4738 C.2       6 UNK         0.5007 
     44 O         -73.8579   26.6325  -73.5323 O.2       6 UNK        -0.5032 
     45 CA        -74.9070   24.6307  -72.6986 C.3       5 UNK         0.0783 
     46 C46       -75.5878   24.7481  -71.3127 C.3       11 UNK        -0.0857 
     47 S47       -74.6780   25.7668  -70.1069 S.3       11 UNK        -0.2512 
     48 C48       -76.0560   26.5430  -69.1980 C.3       11 UNK         0.0225 
     49 N         -75.5535   23.5636  -73.4654 N.am      5 UNK        -0.4615 
     50 C         -75.1727   23.1021  -74.6628 C.2       4 UNK         0.5053 
     51 O         -74.1590   23.4713  -75.2522 O.2       4 UNK        -0.5105 
     52 CA        -76.1264   22.0953  -75.3338 C.3       4 UNK         0.0263 
     53 CB        -75.7549   20.6577  -74.9383 C.3       4 UNK        -0.1981 
     54 N         -77.5416   22.3428  -75.0230 N.am      4 UNK        -0.4224 
     55 C         -78.1987   23.4740  -75.3179 C.2       3 UNK         0.4895 
     56 O         -77.6859   24.4283  -75.9063 O.2       3 UNK        -0.5091 
     57 CA        -79.6315   23.5932  -74.7731 C.3       3 UNK         0.0250 
     58 CB        -79.5949   24.1201  -73.3278 C.3       3 UNK        -0.1996 
     59 N         -80.4659   24.4917  -75.5732 N.am      3 UNK        -0.4254 
     60 C         -80.8538   24.2748  -76.8374 C.2       2 UNK         0.5004 
     61 O         -80.5678   23.2553  -77.4681 O.2       2 UNK        -0.5226 
     62 CA        -81.7363   25.3517  -77.5021 C.3       2 UNK         0.0269 
     63 CB        -82.8803   24.7194  -78.3167 C.3       2 UNK        -0.1926 
     64 N         -82.3210   26.2952  -76.5410 N.am      2 UNK        -0.4687 
     65 C         -81.7882   27.4740  -76.1876 C.2       1 UNK         0.5165 
     66 O         -80.7083   27.8819  -76.6137 O.2       1 UNK        -0.5079 
     67 H67       -86.5006   27.6492  -77.3201 H         1 UNK         0.0900 
     68 H68       -86.5659   27.7154  -75.5578 H         1 UNK         0.0900 
     69 H69       -86.8341   29.1797  -76.5051 H         1 UNK         0.0900 
     70 H70       -84.5308   27.6609  -74.6338 H         1 UNK         0.2959 
     71 H71       -82.4009   29.3872  -75.4669 H         1 UNK         0.1079 
     72 H72       -82.9642   28.5138  -73.0633 H         1 UNK         0.0837 
     73 H73       -82.1161   27.0576  -73.5033 H         1 UNK         0.0837 
     74 H74       -80.8105   28.1820  -71.0325 H         1 UNK         0.0685 
     75 H75       -80.1710   26.9556  -72.1021 H         1 UNK         0.0685 
     76 H76       -78.5518   26.4276  -70.3269 H         1 UNK         0.1434 
     77 H77       -75.1459   28.9822  -69.9096 H         1 UNK         0.1329 
     78 H78       -78.4939   30.2740  -72.2410 H         1 UNK         0.1335 
     79 H79       -75.4654   31.4137  -70.5779 H         1 UNK         0.0680 
     80 H80       -76.7289   31.8357  -71.7030 H         1 UNK         0.0680 
     81 H81       -73.8769   28.7769  -72.1095 H         1 UNK         0.1032 
     82 H82       -73.4491   30.1035  -71.0591 H         1 UNK         0.1032 
     83 H83       -71.8920   31.0086  -72.7244 H         1 UNK         0.0461 
     84 H84       -70.3597   28.2002  -73.7203 H         1 UNK         0.3453 
     85 H85       -69.5487   27.8381  -72.2165 H         1 UNK         0.3453 
     86 H86       -72.9219   28.9133  -74.4976 H         1 UNK         0.2984 
     87 H87       -72.6415   30.0786  -76.9692 H         1 UNK         0.0554 
     88 H88       -70.5477   31.1775  -77.6714 H         1 UNK         0.0847 
     89 H89       -70.7857   29.7127  -78.6088 H         1 UNK         0.0847 
     90 H90       -69.6127   29.7396  -77.2926 H         1 UNK         0.0847 
     91 H91       -72.7975   27.8936  -76.9920 H         1 UNK         0.3141 
     92 H92       -70.7937   25.3752  -77.2915 H         1 UNK         0.0743 
     93 H93       -70.0517   24.9772  -74.9593 H         1 UNK         0.0784 
     94 H94       -71.6735   25.2873  -74.3570 H         1 UNK         0.0784 
     95 H95       -71.3566   23.8788  -75.3681 H         1 UNK         0.0784 
     96 H96       -73.4296   25.2207  -76.1143 H         1 UNK         0.3213 
     97 H97       -75.2047   26.4467  -78.9143 H         1 UNK         0.0855 
     98 H98       -74.9699   23.5618  -77.9170 H         1 UNK         0.0814 
     99 H99       -74.9847   24.1011  -79.5854 H         1 UNK         0.0814 
    100 H100      -76.4388   24.2542  -78.6095 H         1 UNK         0.0814 
    101 H101      -76.1811   25.4204  -76.4752 H         1 UNK         0.3105 
    102 H102      -75.7134   28.3372  -74.4449 H         1 UNK         0.0547 
    103 H103      -78.1521   27.9299  -74.1884 H         1 UNK         0.0837 
    104 H104      -77.7962   28.7318  -75.7074 H         1 UNK         0.0837 
    105 H105      -78.1835   27.0183  -75.6936 H         1 UNK         0.0837 
    106 H106      -76.8064   25.6675  -74.0895 H         1 UNK         0.3020 
    107 H107      -73.8656   24.3354  -72.5508 H         1 UNK         0.1245 
    108 H108      -75.6836   23.7575  -70.8647 H         1 UNK         0.0781 
    109 H109      -76.6073   25.1182  -71.4255 H         1 UNK         0.0781 
    110 H110      -75.6624   27.0147  -68.2964 H         1 UNK         0.0836 
    111 H111      -76.7505   25.7724  -68.8596 H         1 UNK         0.0836 
    112 H112      -76.3937   23.1762  -73.0643 H         1 UNK         0.3022 
    113 H113      -76.0071   22.1907  -76.4136 H         1 UNK         0.0747 
    114 H114      -76.3647   19.9286  -75.4723 H         1 UNK         0.0793 
    115 H115      -74.7128   20.4444  -75.1811 H         1 UNK         0.0793 
    116 H116      -75.8821   20.4846  -73.8689 H         1 UNK         0.0793 
    117 H117      -78.0315   21.6081  -74.5320 H         1 UNK         0.3047 
    118 H118      -80.0953   22.6045  -74.7833 H         1 UNK         0.0822 
    119 H119      -79.0393   23.4458  -72.6748 H         1 UNK         0.0807 
    120 H120      -80.5986   24.2110  -72.9117 H         1 UNK         0.0807 
    121 H121      -79.1170   25.0989  -73.2684 H         1 UNK         0.0807 
    122 H122      -80.7227   25.3704  -75.1514 H         1 UNK         0.2946 
    123 H123      -81.0911   25.8946  -78.1969 H         1 UNK         0.1144 
    124 H124      -83.4894   25.4823  -78.8021 H         1 UNK         0.0793 
    125 H125      -83.5360   24.1147  -77.6891 H         1 UNK         0.0793 
    126 H126      -82.4933   24.0715  -79.1043 H         1 UNK         0.0793 
    127 H127      -83.2120   26.0370  -76.1412 H         1 UNK         0.2896 
@<TRIPOS>BOND
     1    1    2 1    
     2    1   67 1    
     3    1   68 1    
     4    1   69 1    
     5    2    3 2    
     6    2    4 am   BACKBONE|DICT|INTERRES
     7    4    5 1    
     8    4   70 1    
     9    5    6 1    
    10    5   65 1    
    11    5   71 1    
    12    6    7 1    
    13    6   72 1    
    14    6   73 1    
    15    7    8 1    
    16    8    9 1    
    17    8   74 1    
    18    8   75 1    
    19    9   10 ar   
    20    9   14 ar   
    21   10   11 ar   
    22   10   76 1    
    23   11   12 ar   
    24   11   48 1    
    25   12   13 ar   
    26   12   77 1    
    27   13   14 ar   
    28   13   15 1    
    29   14   78 1    
    30   15   16 1    
    31   15   79 1    
    32   15   80 1    
    33   16   17 1    
    34   17   18 1    
    35   17   81 1    
    36   17   82 1    
    37   18   19 1    
    38   18   22 1    
    39   18   83 1    
    40   19   20 am   BACKBONE|DICT|INTERRES
    41   19   21 2    
    42   20   84 1    
    43   20   85 1    
    44   22   23 am   BACKBONE|DICT|INTERRES
    45   22   86 1    
    46   23   24 2    
    47   23   25 1    
    48   25   26 1    
    49   25   27 1    
    50   25   87 1    
    51   26   88 1    
    52   26   89 1    
    53   26   90 1    
    54   27   28 am   BACKBONE|DICT|INTERRES
    55   27   91 1    
    56   28   29 2    
    57   28   30 1    
    58   30   31 1    
    59   30   32 1    
    60   30   92 1    
    61   31   93 1    
    62   31   94 1    
    63   31   95 1    
    64   32   33 am   BACKBONE|DICT|INTERRES
    65   32   96 1    
    66   33   34 2    
    67   33   35 1    
    68   35   36 1    
    69   35   37 1    
    70   35   97 1    
    71   36   98 1    
    72   36   99 1    
    73   36  100 1    
    74   37   38 am   BACKBONE|DICT|INTERRES
    75   37  101 1    
    76   38   39 2    
    77   38   40 1    
    78   40   41 1    
    79   40   42 1    
    80   40  102 1    
    81   41  103 1    
    82   41  104 1    
    83   41  105 1    
    84   42   43 am   BACKBONE|DICT|INTERRES
    85   42  106 1    
    86   43   44 2    
    87   43   45 1    
    88   45   46 1    
    89   45   49 1    
    90   45  107 1    
    91   46   47 1    
    92   46  108 1    
    93   46  109 1    
    94   47   48 1    
    95   48  110 1    
    96   48  111 1    
    97   49   50 am   BACKBONE|DICT|INTERRES
    98   49  112 1    
    99   50   51 2    
   100   50   52 1    
   101   52   53 1    
   102   52   54 1    
   103   52  113 1    
   104   53  114 1    
   105   53  115 1    
   106   53  116 1    
   107   54   55 am   BACKBONE|DICT|INTERRES
   108   54  117 1    
   109   55   56 2    
   110   55   57 1    
   111   57   58 1    
   112   57   59 1    
   113   57  118 1    
   114   58  119 1    
   115   58  120 1    
   116   58  121 1    
   117   59   60 am   BACKBONE|DICT|INTERRES
   118   59  122 1    
   119   60   61 2    
   120   60   62 1    
   121   62   63 1    
   122   62   64 1    
   123   62  123 1    
   124   63  124 1    
   125   63  125 1    
   126   63  126 1    
   127   64   65 am   BACKBONE|DICT|INTERRES
   128   64  127 1    
   129   65   66 2    
@<TRIPOS>SUBSTRUCTURE
     1 UNK         1 GROUP             0       ****    0 ROOT    
