@<TRIPOS>MOLECULE
3R135
127   129    1
SMALL
USER_CHARGES


@<TRIPOS>ATOM
      1 CA        -84.4757   30.7604  -77.2410 C.3       0 UNK        -0.1998 
      2 C         -83.8676   29.5512  -76.5461 C.2       0 UNK         0.4909 
      3 O         -84.5520   28.5429  -76.3694 O.2       0 UNK        -0.5240 
      4 N         -82.5909   29.6507  -76.1497 N.am      1 UNK        -0.4739 
      5 CA        -81.7960   28.5978  -75.5079 C.3       1 UNK         0.0864 
      6 C6        -82.3371   28.2097  -74.1004 C.3       11 UNK        -0.0881 
      7 S7        -81.0600   27.4114  -73.0726 S.3       11 UNK        -0.2682 
      8 C8        -80.3645   28.8501  -72.1910 C.3       11 UNK         0.0289 
      9 C9        -78.9160   28.6255  -71.7711 C.ar      11 UNK        -0.0687 
     10 C10       -78.5804   27.5529  -70.9392 C.ar      11 UNK        -0.0823 
     11 C11       -77.2540   27.3443  -70.5548 C.ar      11 UNK        -0.0830 
     12 C12       -76.2671   28.2325  -70.9800 C.ar      11 UNK        -0.1021 
     13 C13       -76.5733   29.2962  -71.8326 C.ar      11 UNK        -0.0753 
     14 C14       -77.9061   29.4873  -72.2191 C.ar      11 UNK        -0.0933 
     15 C15       -75.4788   30.1988  -72.4053 C.3       11 UNK         0.0166 
     16 S16       -74.1936   30.7149  -71.2137 S.3       11 UNK        -0.2615 
     17 C17       -72.9374   29.3868  -71.3288 C.3       11 UNK        -0.0865 
     18 CA        -71.8189   29.6944  -72.3551 C.3       10 UNK         0.0862 
     19 C         -70.5947   28.7683  -72.1363 C.2       10 UNK         0.5551 
     20 N         -69.4993   29.2978  -71.6099 N.am      10 UNK        -0.7319 
     21 O         -70.6471   27.5681  -72.3970 O.2       10 UNK        -0.5018 
     22 N         -72.3124   29.5460  -73.7276 N.am      10 UNK        -0.4509 
     23 C         -71.8425   30.2234  -74.7803 C.2       10 UNK         0.4899 
     24 O         -70.9927   31.1127  -74.7014 O.2       10 UNK        -0.4839 
     25 CA        -72.4342   29.8359  -76.1479 C.3       9 UNK         0.0222 
     26 CB        -71.7903   30.5922  -77.3297 C.3       9 UNK        -0.1966 
     27 N         -72.4159   28.3869  -76.3774 N.am      9 UNK        -0.4218 
     28 C         -71.3439   27.5797  -76.4435 C.2       9 UNK         0.5020 
     29 O         -70.1815   27.9762  -76.3467 O.2       9 UNK        -0.5274 
     30 CA        -71.5877   26.0691  -76.6469 C.3       8 UNK         0.0270 
     31 CB        -71.1790   25.2918  -75.3844 C.3       8 UNK        -0.1976 
     32 N         -72.9701   25.7228  -76.9897 N.am      8 UNK        -0.4313 
     33 C         -73.5622   25.9641  -78.1675 C.2       8 UNK         0.5041 
     34 O         -72.9769   26.4276  -79.1466 O.2       8 UNK        -0.5577 
     35 CA        -75.0772   25.6952  -78.2470 C.3       7 UNK         0.0284 
     36 CB        -75.3579   24.2330  -78.6275 C.3       7 UNK        -0.1958 
     37 N         -75.7838   26.0285  -77.0045 N.am      7 UNK        -0.4454 
     38 C         -75.8420   27.2552  -76.4650 C.2       7 UNK         0.5089 
     39 O         -75.3415   28.2547  -76.9780 O.2       7 UNK        -0.5125 
     40 CA        -76.5163   27.3790  -75.0936 C.3       6 UNK         0.0408 
     41 CB        -78.0425   27.4158  -75.2361 C.3       6 UNK        -0.1791 
     42 N         -76.1066   26.2964  -74.1955 N.am      6 UNK        -0.4762 
     43 C         -74.9019   26.2264  -73.6075 C.2       6 UNK         0.5007 
     44 O         -74.0503   27.1113  -73.7103 O.2       6 UNK        -0.5032 
     45 CA        -74.5533   24.9318  -72.8368 C.3       5 UNK         0.0783 
     46 C46       -74.7672   25.0450  -71.3024 C.3       11 UNK        -0.0857 
     47 S47       -76.4753   24.7022  -70.7329 S.3       11 UNK        -0.2512 
     48 C48       -76.8761   26.1472  -69.7001 C.3       11 UNK         0.0225 
     49 N         -75.2114   23.7474  -73.3937 N.am      5 UNK        -0.4615 
     50 C         -74.9572   23.2134  -74.5937 C.2       4 UNK         0.5053 
     51 O         -74.0782   23.6235  -75.3491 O.2       4 UNK        -0.5105 
     52 CA        -75.8846   22.0709  -75.0464 C.3       4 UNK         0.0263 
     53 CB        -75.3694   20.7195  -74.5277 C.3       4 UNK        -0.1981 
     54 N         -77.2788   22.2651  -74.6252 N.am      4 UNK        -0.4224 
     55 C         -78.0413   23.2992  -75.0072 C.2       3 UNK         0.4895 
     56 O         -77.6521   24.1754  -75.7818 O.2       3 UNK        -0.5091 
     57 CA        -79.4275   23.4113  -74.3493 C.3       3 UNK         0.0250 
     58 CB        -79.2980   23.9833  -72.9278 C.3       3 UNK        -0.1996 
     59 N         -80.3388   24.2702  -75.1072 N.am      3 UNK        -0.4254 
     60 C         -80.8994   23.9506  -76.2819 C.2       2 UNK         0.5004 
     61 O         -80.7215   22.8703  -76.8473 O.2       2 UNK        -0.5226 
     62 CA        -81.8395   24.9857  -76.9274 C.3       2 UNK         0.0269 
     63 CB        -83.2412   24.3878  -77.1455 C.3       2 UNK        -0.1926 
     64 N         -81.9762   26.2047  -76.1213 N.am      2 UNK        -0.4687 
     65 C         -81.5585   27.4232  -76.4878 C.2       1 UNK         0.5165 
     66 O         -80.9928   27.6535  -77.5585 O.2       1 UNK        -0.5079 
     67 H67       -85.3427   31.1157  -76.6848 H         1 UNK         0.0900 
     68 H68       -83.7662   31.5835  -77.3245 H         1 UNK         0.0900 
     69 H69       -84.8019   30.4908  -78.2451 H         1 UNK         0.0900 
     70 H70       -82.0833   30.4999  -76.3575 H         1 UNK         0.2959 
     71 H71       -80.8124   29.0473  -75.3621 H         1 UNK         0.1079 
     72 H72       -82.6837   29.1023  -73.5768 H         1 UNK         0.0837 
     73 H73       -83.2137   27.5633  -74.1653 H         1 UNK         0.0837 
     74 H74       -80.4354   29.7329  -72.8281 H         1 UNK         0.0685 
     75 H75       -80.9705   29.0564  -71.3079 H         1 UNK         0.0685 
     76 H76       -79.3509   26.8696  -70.6089 H         1 UNK         0.1434 
     77 H77       -75.2546   28.0699  -70.6561 H         1 UNK         0.1329 
     78 H78       -78.1566   30.3031  -72.8831 H         1 UNK         0.1335 
     79 H79       -75.0084   29.6972  -73.2493 H         1 UNK         0.0680 
     80 H80       -75.9282   31.1073  -72.8086 H         1 UNK         0.0680 
     81 H81       -72.5138   29.2749  -70.3287 H         1 UNK         0.1032 
     82 H82       -73.3943   28.4279  -71.5650 H         1 UNK         0.1032 
     83 H83       -71.5005   30.7279  -72.2008 H         1 UNK         0.0461 
     84 H84       -69.4506   30.2800  -71.3871 H         1 UNK         0.3453 
     85 H85       -68.6996   28.7065  -71.4458 H         1 UNK         0.3453 
     86 H86       -72.9495   28.7695  -73.8796 H         1 UNK         0.2984 
     87 H87       -73.4859   30.1232  -76.1133 H         1 UNK         0.0554 
     88 H88       -71.9101   31.6700  -77.2139 H         1 UNK         0.0847 
     89 H89       -72.2541   30.3150  -78.2764 H         1 UNK         0.0847 
     90 H90       -70.7214   30.3920  -77.4082 H         1 UNK         0.0847 
     91 H91       -73.3321   27.9674  -76.4875 H         1 UNK         0.3141 
     92 H92       -70.9462   25.7457  -77.4691 H         1 UNK         0.0743 
     93 H93       -71.7630   25.6022  -74.5177 H         1 UNK         0.0784 
     94 H94       -71.3108   24.2175  -75.5149 H         1 UNK         0.0784 
     95 H95       -70.1291   25.4625  -75.1423 H         1 UNK         0.0784 
     96 H96       -73.5059   25.2326  -76.2779 H         1 UNK         0.3213 
     97 H97       -75.4833   26.3350  -79.0334 H         1 UNK         0.0855 
     98 H98       -74.9505   23.5379  -77.8939 H         1 UNK         0.0814 
     99 H99       -74.9070   23.9895  -79.5903 H         1 UNK         0.0814 
    100 H100      -76.4281   24.0421  -78.7117 H         1 UNK         0.0814 
    101 H101      -76.2783   25.2746  -76.5327 H         1 UNK         0.3105 
    102 H102      -76.2072   28.3254  -74.6498 H         1 UNK         0.0547 
    103 H103      -78.3596   28.3355  -75.7282 H         1 UNK         0.0837 
    104 H104      -78.4308   26.5866  -75.8260 H         1 UNK         0.0837 
    105 H105      -78.5180   27.3843  -74.2602 H         1 UNK         0.0837 
    106 H106      -76.7321   25.5074  -74.1195 H         1 UNK         0.3020 
    107 H107      -73.4808   24.7928  -72.9911 H         1 UNK         0.1245 
    108 H108      -74.4171   26.0064  -70.9277 H         1 UNK         0.0781 
    109 H109      -74.1297   24.3087  -70.8105 H         1 UNK         0.0781 
    110 H110      -76.0348   26.3846  -69.0470 H         1 UNK         0.0836 
    111 H111      -77.7065   25.8879  -69.0417 H         1 UNK         0.0836 
    112 H112      -75.9501   23.3547  -72.8284 H         1 UNK         0.3022 
    113 H113      -75.8683   22.0465  -76.1378 H         1 UNK         0.0747 
    114 H114      -75.9670   19.8928  -74.9122 H         1 UNK         0.0793 
    115 H115      -74.3400   20.5476  -74.8458 H         1 UNK         0.0793 
    116 H116      -75.3864   20.6692  -73.4382 H         1 UNK         0.0793 
    117 H117      -77.6598   21.5850  -73.9826 H         1 UNK         0.3047 
    118 H118      -79.8661   22.4127  -74.2922 H         1 UNK         0.0822 
    119 H119      -78.6951   23.3323  -72.2943 H         1 UNK         0.0807 
    120 H120      -80.2720   24.0795  -72.4475 H         1 UNK         0.0807 
    121 H121      -78.8297   24.9691  -72.9264 H         1 UNK         0.0807 
    122 H122      -80.5087   25.1912  -74.7315 H         1 UNK         0.2946 
    123 H123      -81.4137   25.2192  -77.9058 H         1 UNK         0.1144 
    124 H124      -83.9035   25.1028  -77.6341 H         1 UNK         0.0793 
    125 H125      -83.7046   24.0912  -76.2038 H         1 UNK         0.0793 
    126 H126      -83.1977   23.5028  -77.7818 H         1 UNK         0.0793 
    127 H127      -82.4411   26.1061  -75.2294 H         1 UNK         0.2896 
@<TRIPOS>BOND
     1    1    2 1    
     2    1   67 1    
     3    1   68 1    
     4    1   69 1    
     5    2    3 2    
     6    2    4 am   BACKBONE|DICT|INTERRES
     7    4    5 1    
     8    4   70 1    
     9    5    6 1    
    10    5   65 1    
    11    5   71 1    
    12    6    7 1    
    13    6   72 1    
    14    6   73 1    
    15    7    8 1    
    16    8    9 1    
    17    8   74 1    
    18    8   75 1    
    19    9   10 ar   
    20    9   14 ar   
    21   10   11 ar   
    22   10   76 1    
    23   11   12 ar   
    24   11   48 1    
    25   12   13 ar   
    26   12   77 1    
    27   13   14 ar   
    28   13   15 1    
    29   14   78 1    
    30   15   16 1    
    31   15   79 1    
    32   15   80 1    
    33   16   17 1    
    34   17   18 1    
    35   17   81 1    
    36   17   82 1    
    37   18   19 1    
    38   18   22 1    
    39   18   83 1    
    40   19   20 am   BACKBONE|DICT|INTERRES
    41   19   21 2    
    42   20   84 1    
    43   20   85 1    
    44   22   23 am   BACKBONE|DICT|INTERRES
    45   22   86 1    
    46   23   24 2    
    47   23   25 1    
    48   25   26 1    
    49   25   27 1    
    50   25   87 1    
    51   26   88 1    
    52   26   89 1    
    53   26   90 1    
    54   27   28 am   BACKBONE|DICT|INTERRES
    55   27   91 1    
    56   28   29 2    
    57   28   30 1    
    58   30   31 1    
    59   30   32 1    
    60   30   92 1    
    61   31   93 1    
    62   31   94 1    
    63   31   95 1    
    64   32   33 am   BACKBONE|DICT|INTERRES
    65   32   96 1    
    66   33   34 2    
    67   33   35 1    
    68   35   36 1    
    69   35   37 1    
    70   35   97 1    
    71   36   98 1    
    72   36   99 1    
    73   36  100 1    
    74   37   38 am   BACKBONE|DICT|INTERRES
    75   37  101 1    
    76   38   39 2    
    77   38   40 1    
    78   40   41 1    
    79   40   42 1    
    80   40  102 1    
    81   41  103 1    
    82   41  104 1    
    83   41  105 1    
    84   42   43 am   BACKBONE|DICT|INTERRES
    85   42  106 1    
    86   43   44 2    
    87   43   45 1    
    88   45   46 1    
    89   45   49 1    
    90   45  107 1    
    91   46   47 1    
    92   46  108 1    
    93   46  109 1    
    94   47   48 1    
    95   48  110 1    
    96   48  111 1    
    97   49   50 am   BACKBONE|DICT|INTERRES
    98   49  112 1    
    99   50   51 2    
   100   50   52 1    
   101   52   53 1    
   102   52   54 1    
   103   52  113 1    
   104   53  114 1    
   105   53  115 1    
   106   53  116 1    
   107   54   55 am   BACKBONE|DICT|INTERRES
   108   54  117 1    
   109   55   56 2    
   110   55   57 1    
   111   57   58 1    
   112   57   59 1    
   113   57  118 1    
   114   58  119 1    
   115   58  120 1    
   116   58  121 1    
   117   59   60 am   BACKBONE|DICT|INTERRES
   118   59  122 1    
   119   60   61 2    
   120   60   62 1    
   121   62   63 1    
   122   62   64 1    
   123   62  123 1    
   124   63  124 1    
   125   63  125 1    
   126   63  126 1    
   127   64   65 am   BACKBONE|DICT|INTERRES
   128   64  127 1    
   129   65   66 2    
@<TRIPOS>SUBSTRUCTURE
     1 UNK         1 GROUP             0       ****    0 ROOT    
