@<TRIPOS>MOLECULE
3R135
127   129    1
SMALL
USER_CHARGES


@<TRIPOS>ATOM
      1 CA        -83.3597   27.5510  -74.9462 C.3       0 UNK        -0.1998 
      2 C         -81.9442   28.0380  -75.2149 C.2       0 UNK         0.4909 
      3 O         -81.5845   28.2556  -76.3728 O.2       0 UNK        -0.5240 
      4 N         -81.1415   28.2038  -74.1534 N.am      1 UNK        -0.4739 
      5 CA        -79.7280   28.6020  -74.1887 C.3       1 UNK         0.0864 
      6 C6        -79.0888   28.5629  -72.7817 C.3       11 UNK        -0.0881 
      7 S7        -79.8923   29.5893  -71.5088 S.3       11 UNK        -0.2682 
      8 C8        -79.3968   28.6857  -69.9950 C.3       11 UNK         0.0289 
      9 C9        -77.9168   28.3167  -70.0125 C.ar      11 UNK        -0.0687 
     10 C10       -77.5157   26.9914  -70.2146 C.ar      11 UNK        -0.0823 
     11 C11       -76.1603   26.6700  -70.3378 C.ar      11 UNK        -0.0830 
     12 C12       -75.2057   27.6890  -70.2560 C.ar      11 UNK        -0.1021 
     13 C13       -75.5903   29.0190  -70.0532 C.ar      11 UNK        -0.0753 
     14 C14       -76.9499   29.3172  -69.8997 C.ar      11 UNK        -0.0933 
     15 C15       -74.5141   30.1051  -70.0218 C.3       11 UNK         0.0166 
     16 S16       -75.0598   31.7716  -70.5423 S.3       11 UNK        -0.2615 
     17 C17       -75.7393   31.4794  -72.2189 C.3       11 UNK        -0.0865 
     18 CA        -74.7867   31.8528  -73.3878 C.3       10 UNK         0.0862 
     19 C         -74.3807   33.3509  -73.4177 C.2       10 UNK         0.5551 
     20 N         -75.3380   34.2500  -73.6021 N.am      10 UNK        -0.7319 
     21 O         -73.2111   33.7076  -73.2781 O.2       10 UNK        -0.5018 
     22 N         -73.6122   30.9785  -73.4521 N.am      10 UNK        -0.4509 
     23 C         -73.6009   29.7410  -73.9532 C.2       10 UNK         0.4899 
     24 O         -74.6023   29.1504  -74.3632 O.2       10 UNK        -0.4839 
     25 CA        -72.2328   29.0383  -73.9881 C.3       9 UNK         0.0222 
     26 CB        -72.1358   27.9856  -72.8711 C.3       9 UNK        -0.1966 
     27 N         -71.9862   28.3874  -75.2749 N.am      9 UNK        -0.4218 
     28 C         -71.8890   29.0025  -76.4627 C.2       9 UNK         0.5020 
     29 O         -71.9376   30.2260  -76.6017 O.2       9 UNK        -0.5274 
     30 CA        -71.6681   28.1193  -77.7101 C.3       8 UNK         0.0270 
     31 CB        -70.3242   28.4526  -78.3821 C.3       8 UNK        -0.1976 
     32 N         -71.7157   26.6762  -77.4434 N.am      8 UNK        -0.4313 
     33 C         -72.8338   25.9821  -77.2021 C.2       8 UNK         0.5041 
     34 O         -73.9613   26.4799  -77.1890 O.2       8 UNK        -0.5577 
     35 CA        -72.6551   24.4962  -76.8769 C.3       7 UNK         0.0284 
     36 CB        -72.0427   24.3091  -75.4737 C.3       7 UNK        -0.1958 
     37 N         -73.9661   23.8633  -76.9275 N.am      7 UNK        -0.4454 
     38 C         -74.2132   22.5568  -77.0542 C.2       7 UNK         0.5089 
     39 O         -73.3377   21.7029  -77.2088 O.2       7 UNK        -0.5125 
     40 CA        -75.6967   22.1526  -76.9666 C.3       6 UNK         0.0408 
     41 CB        -75.9122   20.6276  -76.8709 C.3       6 UNK        -0.1791 
     42 N         -76.3897   22.8562  -75.8795 N.am      6 UNK        -0.4762 
     43 C         -76.1263   22.7875  -74.5621 C.2       6 UNK         0.5007 
     44 O         -75.2687   22.0529  -74.0706 O.2       6 UNK        -0.5032 
     45 CA        -76.9895   23.6677  -73.6302 C.3       5 UNK         0.0783 
     46 C46       -76.3236   25.0353  -73.3170 C.3       11 UNK        -0.0857 
     47 S47       -74.9240   24.9277  -72.1527 S.3       11 UNK        -0.2512 
     48 C48       -75.7263   25.2217  -70.5397 C.3       11 UNK         0.0225 
     49 N         -78.3338   23.8743  -74.1701 N.am      5 UNK        -0.4615 
     50 C         -79.2901   22.9474  -74.3028 C.2       4 UNK         0.5053 
     51 O         -79.1721   21.7788  -73.9352 O.2       4 UNK        -0.5105 
     52 CA        -80.5957   23.4103  -74.9667 C.3       4 UNK         0.0263 
     53 CB        -81.4903   24.1356  -73.9469 C.3       4 UNK        -0.1981 
     54 N         -80.3313   24.3050  -76.0968 N.am      4 UNK        -0.4224 
     55 C         -80.2182   23.9151  -77.3736 C.2       3 UNK         0.4895 
     56 O         -80.3515   22.7491  -77.7463 O.2       3 UNK        -0.5091 
     57 CA        -79.9224   25.0029  -78.4246 C.3       3 UNK         0.0250 
     58 CB        -81.2331   25.5110  -79.0468 C.3       3 UNK        -0.1996 
     59 N         -79.1693   26.1456  -77.9015 N.am      3 UNK        -0.4254 
     60 C         -77.8721   26.1119  -77.5634 C.2       2 UNK         0.5004 
     61 O         -77.1629   25.1121  -77.6751 O.2       2 UNK        -0.5226 
     62 CA        -77.2793   27.3928  -76.9412 C.3       2 UNK         0.0269 
     63 CB        -76.7130   28.3108  -78.0358 C.3       2 UNK        -0.1926 
     64 N         -78.2019   28.1617  -76.0910 N.am      2 UNK        -0.4687 
     65 C         -78.9108   27.6481  -75.0769 C.2       1 UNK         0.5165 
     66 O         -78.9345   26.4486  -74.8042 O.2       1 UNK        -0.5079 
     67 H67       -83.5288   27.3520  -73.8880 H         1 UNK         0.0900 
     68 H68       -84.0817   28.2992  -75.2719 H         1 UNK         0.0900 
     69 H69       -83.5493   26.6308  -75.4982 H         1 UNK         0.0900 
     70 H70       -81.5037   28.0181  -73.2293 H         1 UNK         0.2959 
     71 H71       -79.6679   29.6159  -74.5885 H         1 UNK         0.1079 
     72 H72       -79.0891   27.5336  -72.4169 H         1 UNK         0.0837 
     73 H73       -78.0404   28.8666  -72.8323 H         1 UNK         0.0837 
     74 H74       -80.0142   27.7912  -69.8989 H         1 UNK         0.0685 
     75 H75       -79.6111   29.3035  -69.1219 H         1 UNK         0.0685 
     76 H76       -78.2616   26.2129  -70.2995 H         1 UNK         0.1434 
     77 H77       -74.1582   27.4423  -70.3638 H         1 UNK         0.1329 
     78 H78       -77.2714   30.3375  -69.7456 H         1 UNK         0.1335 
     79 H79       -73.6786   29.8167  -70.6591 H         1 UNK         0.0680 
     80 H80       -74.1198   30.1716  -69.0072 H         1 UNK         0.0680 
     81 H81       -76.6673   32.0470  -72.3010 H         1 UNK         0.1032 
     82 H82       -76.0420   30.4372  -72.3212 H         1 UNK         0.1032 
     83 H83       -75.3370   31.6971  -74.3183 H         1 UNK         0.0461 
     84 H84       -76.2999   33.9750  -73.7235 H         1 UNK         0.3453 
     85 H85       -75.0919   35.2274  -73.6225 H         1 UNK         0.3453 
     86 H86       -72.7488   31.4221  -73.1676 H         1 UNK         0.2984 
     87 H87       -71.4444   29.7785  -73.8367 H         1 UNK         0.0554 
     88 H88       -72.2262   28.4487  -71.8890 H         1 UNK         0.0847 
     89 H89       -71.1774   27.4665  -72.8917 H         1 UNK         0.0847 
     90 H90       -72.9259   27.2373  -72.9525 H         1 UNK         0.0847 
     91 H91       -71.9750   27.3797  -75.2735 H         1 UNK         0.3141 
     92 H92       -72.4677   28.3616  -78.4136 H         1 UNK         0.0743 
     93 H93       -70.2695   29.5094  -78.6478 H         1 UNK         0.0784 
     94 H94       -69.4801   28.2386  -77.7252 H         1 UNK         0.0784 
     95 H95       -70.1880   27.8845  -79.3026 H         1 UNK         0.0784 
     96 H96       -70.8284   26.1922  -77.4293 H         1 UNK         0.3213 
     97 H97       -72.0083   24.0474  -77.6339 H         1 UNK         0.0855 
     98 H98       -72.6717   24.7511  -74.6992 H         1 UNK         0.0814 
     99 H99       -71.0574   24.7708  -75.4018 H         1 UNK         0.0814 
    100 H100      -71.9173   23.2534  -75.2322 H         1 UNK         0.0814 
    101 H101      -74.7406   24.5186  -76.8884 H         1 UNK         0.3105 
    102 H102      -76.1614   22.4909  -77.8938 H         1 UNK         0.0547 
    103 H103      -76.9722   20.3802  -76.8149 H         1 UNK         0.0837 
    104 H104      -75.4208   20.2002  -75.9965 H         1 UNK         0.0837 
    105 H105      -75.5070   20.1221  -77.7482 H         1 UNK         0.0837 
    106 H106      -77.0796   23.5313  -76.1887 H         1 UNK         0.3020 
    107 H107      -77.1068   23.1185  -72.6934 H         1 UNK         0.1245 
    108 H108      -77.0563   25.7216  -72.8900 H         1 UNK         0.0781 
    109 H109      -75.9778   25.5179  -74.2334 H         1 UNK         0.0781 
    110 H110      -75.0224   24.9560  -69.7498 H         1 UNK         0.0836 
    111 H111      -76.5716   24.5404  -70.4315 H         1 UNK         0.0836 
    112 H112      -78.5481   24.8283  -74.4614 H         1 UNK         0.3022 
    113 H113      -81.1300   22.5234  -75.3142 H         1 UNK         0.0747 
    114 H114      -82.4443   24.4197  -74.3909 H         1 UNK         0.0793 
    115 H115      -81.7092   23.4924  -73.0935 H         1 UNK         0.0793 
    116 H116      -81.0185   25.0404  -73.5611 H         1 UNK         0.0793 
    117 H117      -80.1230   25.2702  -75.8654 H         1 UNK         0.3047 
    118 H118      -79.3272   24.5390  -79.2143 H         1 UNK         0.0822 
    119 H119      -81.0412   26.2156  -79.8562 H         1 UNK         0.0807 
    120 H120      -81.8628   26.0106  -78.3090 H         1 UNK         0.0807 
    121 H121      -81.8123   24.6873  -79.4666 H         1 UNK         0.0807 
    122 H122      -79.6857   27.0002  -77.7390 H         1 UNK         0.2946 
    123 H123      -76.4494   27.0776  -76.3045 H         1 UNK         0.1144 
    124 H124      -76.0168   27.7671  -78.6764 H         1 UNK         0.0793 
    125 H125      -76.1610   29.1458  -77.6037 H         1 UNK         0.0793 
    126 H126      -77.4995   28.7152  -78.6739 H         1 UNK         0.0793 
    127 H127      -78.2459   29.1557  -76.2632 H         1 UNK         0.2896 
@<TRIPOS>BOND
     1    1    2 1    
     2    1   67 1    
     3    1   68 1    
     4    1   69 1    
     5    2    3 2    
     6    2    4 am   BACKBONE|DICT|INTERRES
     7    4    5 1    
     8    4   70 1    
     9    5    6 1    
    10    5   65 1    
    11    5   71 1    
    12    6    7 1    
    13    6   72 1    
    14    6   73 1    
    15    7    8 1    
    16    8    9 1    
    17    8   74 1    
    18    8   75 1    
    19    9   10 ar   
    20    9   14 ar   
    21   10   11 ar   
    22   10   76 1    
    23   11   12 ar   
    24   11   48 1    
    25   12   13 ar   
    26   12   77 1    
    27   13   14 ar   
    28   13   15 1    
    29   14   78 1    
    30   15   16 1    
    31   15   79 1    
    32   15   80 1    
    33   16   17 1    
    34   17   18 1    
    35   17   81 1    
    36   17   82 1    
    37   18   19 1    
    38   18   22 1    
    39   18   83 1    
    40   19   20 am   BACKBONE|DICT|INTERRES
    41   19   21 2    
    42   20   84 1    
    43   20   85 1    
    44   22   23 am   BACKBONE|DICT|INTERRES
    45   22   86 1    
    46   23   24 2    
    47   23   25 1    
    48   25   26 1    
    49   25   27 1    
    50   25   87 1    
    51   26   88 1    
    52   26   89 1    
    53   26   90 1    
    54   27   28 am   BACKBONE|DICT|INTERRES
    55   27   91 1    
    56   28   29 2    
    57   28   30 1    
    58   30   31 1    
    59   30   32 1    
    60   30   92 1    
    61   31   93 1    
    62   31   94 1    
    63   31   95 1    
    64   32   33 am   BACKBONE|DICT|INTERRES
    65   32   96 1    
    66   33   34 2    
    67   33   35 1    
    68   35   36 1    
    69   35   37 1    
    70   35   97 1    
    71   36   98 1    
    72   36   99 1    
    73   36  100 1    
    74   37   38 am   BACKBONE|DICT|INTERRES
    75   37  101 1    
    76   38   39 2    
    77   38   40 1    
    78   40   41 1    
    79   40   42 1    
    80   40  102 1    
    81   41  103 1    
    82   41  104 1    
    83   41  105 1    
    84   42   43 am   BACKBONE|DICT|INTERRES
    85   42  106 1    
    86   43   44 2    
    87   43   45 1    
    88   45   46 1    
    89   45   49 1    
    90   45  107 1    
    91   46   47 1    
    92   46  108 1    
    93   46  109 1    
    94   47   48 1    
    95   48  110 1    
    96   48  111 1    
    97   49   50 am   BACKBONE|DICT|INTERRES
    98   49  112 1    
    99   50   51 2    
   100   50   52 1    
   101   52   53 1    
   102   52   54 1    
   103   52  113 1    
   104   53  114 1    
   105   53  115 1    
   106   53  116 1    
   107   54   55 am   BACKBONE|DICT|INTERRES
   108   54  117 1    
   109   55   56 2    
   110   55   57 1    
   111   57   58 1    
   112   57   59 1    
   113   57  118 1    
   114   58  119 1    
   115   58  120 1    
   116   58  121 1    
   117   59   60 am   BACKBONE|DICT|INTERRES
   118   59  122 1    
   119   60   61 2    
   120   60   62 1    
   121   62   63 1    
   122   62   64 1    
   123   62  123 1    
   124   63  124 1    
   125   63  125 1    
   126   63  126 1    
   127   64   65 am   BACKBONE|DICT|INTERRES
   128   64  127 1    
   129   65   66 2    
@<TRIPOS>SUBSTRUCTURE
     1 UNK         1 GROUP             0       ****    0 ROOT    
