@<TRIPOS>MOLECULE
3R135
127   129    1
SMALL
USER_CHARGES


@<TRIPOS>ATOM
      1 CA        -84.1305   24.6884  -74.2202 C.3       0 UNK        -0.1998 
      2 C         -83.1542   25.8411  -74.0456 C.2       0 UNK         0.4909 
      3 O         -82.9488   26.6145  -74.9815 O.2       0 UNK        -0.5240 
      4 N         -82.5533   25.9706  -72.8545 N.am      1 UNK        -0.4739 
      5 CA        -81.6083   27.0422  -72.5235 C.3       1 UNK         0.0864 
      6 C6        -81.3401   27.1350  -71.0018 C.3       11 UNK        -0.0881 
      7 S7        -81.0080   28.8558  -70.4938 S.3       11 UNK        -0.2682 
      8 C8        -79.5035   28.6819  -69.4867 C.3       11 UNK         0.0289 
      9 C9        -78.2597   28.4282  -70.3268 C.ar      11 UNK        -0.0687 
     10 C10       -77.6462   27.1735  -70.3168 C.ar      11 UNK        -0.0823 
     11 C11       -76.4627   26.9555  -71.0274 C.ar      11 UNK        -0.0830 
     12 C12       -75.8942   28.0035  -71.7577 C.ar      11 UNK        -0.1021 
     13 C13       -76.5049   29.2638  -71.7891 C.ar      11 UNK        -0.0753 
     14 C14       -77.6877   29.4655  -71.0692 C.ar      11 UNK        -0.0933 
     15 C15       -75.8792   30.4382  -72.5378 C.3       11 UNK         0.0166 
     16 S16       -75.1401   29.9848  -74.1410 S.3       11 UNK        -0.2615 
     17 C17       -74.9404   31.6249  -74.9241 C.3       11 UNK        -0.0865 
     18 CA        -73.6349   32.4204  -74.6051 C.3       10 UNK         0.0862 
     19 C         -73.6592   33.1909  -73.2476 C.2       10 UNK         0.5551 
     20 N         -72.5210   33.4632  -72.6224 N.am      10 UNK        -0.7319 
     21 O         -74.7192   33.5975  -72.7778 O.2       10 UNK        -0.5018 
     22 N         -72.3977   31.6939  -74.9566 N.am      10 UNK        -0.4509 
     23 C         -71.7553   30.7688  -74.2314 C.2       10 UNK         0.4899 
     24 O         -72.0469   30.4448  -73.0784 O.2       10 UNK        -0.4839 
     25 CA        -70.5532   30.0940  -74.9098 C.3       9 UNK         0.0222 
     26 CB        -69.2305   30.6447  -74.3521 C.3       9 UNK        -0.1966 
     27 N         -70.6137   28.6490  -74.6918 N.am      9 UNK        -0.4218 
     28 C         -71.4727   27.8342  -75.3167 C.2       9 UNK         0.5020 
     29 O         -72.2018   28.1836  -76.2488 O.2       9 UNK        -0.5274 
     30 CA        -71.5646   26.4021  -74.7657 C.3       8 UNK         0.0270 
     31 CB        -72.5889   26.3425  -73.6200 C.3       8 UNK        -0.1976 
     32 N         -71.9525   25.4438  -75.8009 N.am      8 UNK        -0.4313 
     33 C         -71.1681   25.0469  -76.8113 C.2       8 UNK         0.5041 
     34 O         -69.9949   25.4006  -76.9439 O.2       8 UNK        -0.5577 
     35 CA        -71.7753   24.0719  -77.8358 C.3       7 UNK         0.0284 
     36 CB        -71.1944   22.6610  -77.6431 C.3       7 UNK        -0.1958 
     37 N         -73.2363   23.9920  -77.7608 N.am      7 UNK        -0.4454 
     38 C         -74.0924   24.8297  -78.3544 C.2       7 UNK         0.5089 
     39 O         -73.7412   25.7875  -79.0432 O.2       7 UNK        -0.5125 
     40 CA        -75.5954   24.5449  -78.1688 C.3       6 UNK         0.0408 
     41 CB        -76.0390   23.3405  -79.0208 C.3       6 UNK        -0.1791 
     42 N         -76.0555   24.4025  -76.7793 N.am      6 UNK        -0.4762 
     43 C         -75.7277   23.4791  -75.8619 C.2       6 UNK         0.5007 
     44 O         -74.8650   22.6162  -76.0308 O.2       6 UNK        -0.5032 
     45 CA        -76.5232   23.4945  -74.5424 C.3       5 UNK         0.0783 
     46 C46       -76.0243   24.5964  -73.5809 C.3       11 UNK        -0.0857 
     47 S47       -76.6915   24.3402  -71.9061 S.3       11 UNK        -0.2512 
     48 C48       -75.7821   25.5972  -70.9582 C.3       11 UNK         0.0225 
     49 N         -77.9652   23.5814  -74.7877 N.am      5 UNK        -0.4615 
     50 C         -78.6984   22.5968  -75.3251 C.2       4 UNK         0.5053 
     51 O         -78.2524   21.4869  -75.6170 O.2       4 UNK        -0.5105 
     52 CA        -80.1780   22.9031  -75.5924 C.3       4 UNK         0.0263 
     53 CB        -81.0205   22.6670  -74.3289 C.3       4 UNK        -0.1981 
     54 N         -80.3593   24.2710  -76.0848 N.am      4 UNK        -0.4224 
     55 C         -80.1185   24.6390  -77.3529 C.2       3 UNK         0.4895 
     56 O         -79.8302   23.8459  -78.2496 O.2       3 UNK        -0.5091 
     57 CA        -80.2031   26.1369  -77.6941 C.3       3 UNK         0.0250 
     58 CB        -81.5752   26.4768  -78.2976 C.3       3 UNK        -0.1996 
     59 N         -79.9421   27.0143  -76.5512 N.am      3 UNK        -0.4254 
     60 C         -78.7353   27.1964  -75.9940 C.2       2 UNK         0.5004 
     61 O         -77.7099   26.6409  -76.3843 O.2       2 UNK        -0.5226 
     62 CA        -78.6673   28.1237  -74.7682 C.3       2 UNK         0.0269 
     63 CB        -78.4958   29.5820  -75.2215 C.3       2 UNK        -0.1926 
     64 N         -79.8395   28.0340  -73.8935 N.am      2 UNK        -0.4687 
     65 C         -80.3061   26.9084  -73.3374 C.2       1 UNK         0.5165 
     66 O         -79.7814   25.8006  -73.4820 O.2       1 UNK        -0.5079 
     67 H67       -84.0535   23.9637  -73.4100 H         1 UNK         0.0900 
     68 H68       -83.9389   24.1717  -75.1601 H         1 UNK         0.0900 
     69 H69       -85.1521   25.0663  -74.2447 H         1 UNK         0.0900 
     70 H70       -82.7283   25.2915  -72.1279 H         1 UNK         0.2959 
     71 H71       -82.1030   27.9653  -72.8363 H         1 UNK         0.1079 
     72 H72       -82.2195   26.8136  -70.4415 H         1 UNK         0.0837 
     73 H73       -80.5329   26.4678  -70.6925 H         1 UNK         0.0837 
     74 H74       -79.3616   29.5996  -68.9141 H         1 UNK         0.0685 
     75 H75       -79.6494   27.8884  -68.7519 H         1 UNK         0.0685 
     76 H76       -78.0770   26.3666  -69.7397 H         1 UNK         0.1434 
     77 H77       -74.9670   27.8434  -72.2896 H         1 UNK         0.1329 
     78 H78       -78.1579   30.4394  -71.0667 H         1 UNK         0.1335 
     79 H79       -76.6277   31.2142  -72.7042 H         1 UNK         0.0680 
     80 H80       -75.1063   30.8786  -71.9072 H         1 UNK         0.0680 
     81 H81       -75.8248   32.2309  -74.7203 H         1 UNK         0.1032 
     82 H82       -74.9753   31.4496  -76.0002 H         1 UNK         0.1032 
     83 H83       -73.6364   33.2438  -75.3204 H         1 UNK         0.0461 
     84 H84       -72.5427   33.9765  -71.7556 H         1 UNK         0.3453 
     85 H85       -71.6470   33.1229  -72.9891 H         1 UNK         0.3453 
     86 H86       -72.0379   31.8976  -75.8780 H         1 UNK         0.2984 
     87 H87       -70.5825   30.2885  -75.9844 H         1 UNK         0.0554 
     88 H88       -68.3710   30.1756  -74.8314 H         1 UNK         0.0847 
     89 H89       -69.1449   30.4835  -73.2765 H         1 UNK         0.0847 
     90 H90       -69.1511   31.7185  -74.5270 H         1 UNK         0.0847 
     91 H91       -70.0903   28.2915  -73.9056 H         1 UNK         0.3141 
     92 H92       -70.5860   26.1097  -74.3785 H         1 UNK         0.0743 
     93 H93       -72.3245   27.0364  -72.8205 H         1 UNK         0.0784 
     94 H94       -73.5885   26.6134  -73.9630 H         1 UNK         0.0784 
     95 H95       -72.6352   25.3466  -73.1793 H         1 UNK         0.0784 
     96 H96       -72.9130   25.1379  -75.8059 H         1 UNK         0.3213 
     97 H97       -71.4909   24.4255  -78.8294 H         1 UNK         0.0855 
     98 H98       -70.1062   22.6718  -77.7189 H         1 UNK         0.0814 
     99 H99       -71.5636   21.9730  -78.4039 H         1 UNK         0.0814 
    100 H100      -71.4497   22.2495  -76.6657 H         1 UNK         0.0814 
    101 H101      -73.6394   23.2554  -77.1829 H         1 UNK         0.3105 
    102 H102      -76.1238   25.4194  -78.5523 H         1 UNK         0.0547 
    103 H103      -75.7682   23.4824  -80.0678 H         1 UNK         0.0837 
    104 H104      -75.5765   22.4105  -78.6892 H         1 UNK         0.0837 
    105 H105      -77.1203   23.2074  -78.9814 H         1 UNK         0.0837 
    106 H106      -76.7392   25.1101  -76.5093 H         1 UNK         0.3020 
    107 H107      -76.3326   22.5291  -74.0664 H         1 UNK         0.1245 
    108 H108      -76.3020   25.5911  -73.9356 H         1 UNK         0.0781 
    109 H109      -74.9362   24.5744  -73.5117 H         1 UNK         0.0781 
    110 H110      -74.7493   25.6545  -71.3052 H         1 UNK         0.0836 
    111 H111      -75.7318   25.2786  -69.9160 H         1 UNK         0.0836 
    112 H112      -78.4246   24.4408  -74.5097 H         1 UNK         0.3022 
    113 H113      -80.5264   22.2043  -76.3563 H         1 UNK         0.0747 
    114 H114      -82.0840   22.7401  -74.5477 H         1 UNK         0.0793 
    115 H115      -80.8475   21.6672  -73.9283 H         1 UNK         0.0793 
    116 H116      -80.7843   23.3775  -73.5368 H         1 UNK         0.0793 
    117 H117      -80.5431   24.9870  -75.3930 H         1 UNK         0.3047 
    118 H118      -79.4418   26.3387  -78.4511 H         1 UNK         0.0822 
    119 H119      -81.6273   27.5215  -78.6043 H         1 UNK         0.0807 
    120 H120      -82.3853   26.2924  -77.5914 H         1 UNK         0.0807 
    121 H121      -81.7722   25.8703  -79.1827 H         1 UNK         0.0807 
    122 H122      -80.7413   27.4773  -76.1395 H         1 UNK         0.2946 
    123 H123      -77.7926   27.8325  -74.1819 H         1 UNK         0.1144 
    124 H124      -78.3425   30.2458  -74.3708 H         1 UNK         0.0793 
    125 H125      -79.3640   29.9403  -75.7758 H         1 UNK         0.0793 
    126 H126      -77.6278   29.6877  -75.8739 H         1 UNK         0.0793 
    127 H127      -80.3252   28.8999  -73.7089 H         1 UNK         0.2896 
@<TRIPOS>BOND
     1    1    2 1    
     2    1   67 1    
     3    1   68 1    
     4    1   69 1    
     5    2    3 2    
     6    2    4 am   BACKBONE|DICT|INTERRES
     7    4    5 1    
     8    4   70 1    
     9    5    6 1    
    10    5   65 1    
    11    5   71 1    
    12    6    7 1    
    13    6   72 1    
    14    6   73 1    
    15    7    8 1    
    16    8    9 1    
    17    8   74 1    
    18    8   75 1    
    19    9   10 ar   
    20    9   14 ar   
    21   10   11 ar   
    22   10   76 1    
    23   11   12 ar   
    24   11   48 1    
    25   12   13 ar   
    26   12   77 1    
    27   13   14 ar   
    28   13   15 1    
    29   14   78 1    
    30   15   16 1    
    31   15   79 1    
    32   15   80 1    
    33   16   17 1    
    34   17   18 1    
    35   17   81 1    
    36   17   82 1    
    37   18   19 1    
    38   18   22 1    
    39   18   83 1    
    40   19   20 am   BACKBONE|DICT|INTERRES
    41   19   21 2    
    42   20   84 1    
    43   20   85 1    
    44   22   23 am   BACKBONE|DICT|INTERRES
    45   22   86 1    
    46   23   24 2    
    47   23   25 1    
    48   25   26 1    
    49   25   27 1    
    50   25   87 1    
    51   26   88 1    
    52   26   89 1    
    53   26   90 1    
    54   27   28 am   BACKBONE|DICT|INTERRES
    55   27   91 1    
    56   28   29 2    
    57   28   30 1    
    58   30   31 1    
    59   30   32 1    
    60   30   92 1    
    61   31   93 1    
    62   31   94 1    
    63   31   95 1    
    64   32   33 am   BACKBONE|DICT|INTERRES
    65   32   96 1    
    66   33   34 2    
    67   33   35 1    
    68   35   36 1    
    69   35   37 1    
    70   35   97 1    
    71   36   98 1    
    72   36   99 1    
    73   36  100 1    
    74   37   38 am   BACKBONE|DICT|INTERRES
    75   37  101 1    
    76   38   39 2    
    77   38   40 1    
    78   40   41 1    
    79   40   42 1    
    80   40  102 1    
    81   41  103 1    
    82   41  104 1    
    83   41  105 1    
    84   42   43 am   BACKBONE|DICT|INTERRES
    85   42  106 1    
    86   43   44 2    
    87   43   45 1    
    88   45   46 1    
    89   45   49 1    
    90   45  107 1    
    91   46   47 1    
    92   46  108 1    
    93   46  109 1    
    94   47   48 1    
    95   48  110 1    
    96   48  111 1    
    97   49   50 am   BACKBONE|DICT|INTERRES
    98   49  112 1    
    99   50   51 2    
   100   50   52 1    
   101   52   53 1    
   102   52   54 1    
   103   52  113 1    
   104   53  114 1    
   105   53  115 1    
   106   53  116 1    
   107   54   55 am   BACKBONE|DICT|INTERRES
   108   54  117 1    
   109   55   56 2    
   110   55   57 1    
   111   57   58 1    
   112   57   59 1    
   113   57  118 1    
   114   58  119 1    
   115   58  120 1    
   116   58  121 1    
   117   59   60 am   BACKBONE|DICT|INTERRES
   118   59  122 1    
   119   60   61 2    
   120   60   62 1    
   121   62   63 1    
   122   62   64 1    
   123   62  123 1    
   124   63  124 1    
   125   63  125 1    
   126   63  126 1    
   127   64   65 am   BACKBONE|DICT|INTERRES
   128   64  127 1    
   129   65   66 2    
@<TRIPOS>SUBSTRUCTURE
     1 UNK         1 GROUP             0       ****    0 ROOT    
