@<TRIPOS>MOLECULE
3R135
127   129    1
SMALL
USER_CHARGES


@<TRIPOS>ATOM
      1 CA        -83.2764   23.1444  -70.3563 C.3       0 UNK        -0.1998 
      2 C         -82.9870   24.4727  -71.0388 C.2       0 UNK         0.4909 
      3 O         -83.8879   25.3013  -71.1728 O.2       0 UNK        -0.5240 
      4 N         -81.7357   24.6822  -71.4692 N.am      1 UNK        -0.4739 
      5 CA        -81.2742   25.9031  -72.1445 C.3       1 UNK         0.0864 
      6 C6        -79.7290   25.9758  -72.2025 C.3       11 UNK        -0.0881 
      7 S7        -78.9521   26.0625  -70.5533 S.3       11 UNK        -0.2682 
      8 C8        -78.9921   27.8502  -70.1934 C.3       11 UNK         0.0289 
      9 C9        -78.1477   28.6553  -71.1707 C.ar      11 UNK        -0.0687 
     10 C10       -78.7537   29.2947  -72.2560 C.ar      11 UNK        -0.0823 
     11 C11       -77.9843   29.9957  -73.1866 C.ar      11 UNK        -0.0830 
     12 C12       -76.6014   30.0858  -73.0065 C.ar      11 UNK        -0.1021 
     13 C13       -75.9856   29.4711  -71.9126 C.ar      11 UNK        -0.0753 
     14 C14       -76.7635   28.7537  -70.9980 C.ar      11 UNK        -0.0933 
     15 C15       -74.4771   29.5552  -71.7470 C.3       11 UNK         0.0166 
     16 S16       -73.9261   31.2596  -71.4343 S.3       11 UNK        -0.2615 
     17 C17       -72.1160   31.0406  -71.3664 C.3       11 UNK        -0.0865 
     18 CA        -71.4228   31.3569  -72.7178 C.3       10 UNK         0.0862 
     19 C         -69.8851   31.4670  -72.5240 C.2       10 UNK         0.5551 
     20 N         -69.3583   32.6784  -72.4114 N.am      10 UNK        -0.7319 
     21 O         -69.1786   30.4663  -72.4236 O.2       10 UNK        -0.5018 
     22 N         -71.7889   30.3731  -73.7479 N.am      10 UNK        -0.4509 
     23 C         -71.4789   30.4497  -75.0476 C.2       10 UNK         0.4899 
     24 O         -70.9097   31.4201  -75.5498 O.2       10 UNK        -0.4839 
     25 CA        -71.9020   29.2762  -75.9597 C.3       9 UNK         0.0222 
     26 CB        -70.8006   28.9135  -76.9779 C.3       9 UNK        -0.1966 
     27 N         -72.3843   28.0676  -75.2727 N.am      9 UNK        -0.4218 
     28 C         -71.6993   27.2586  -74.4481 C.2       9 UNK         0.5020 
     29 O         -70.5483   27.4715  -74.0682 O.2       9 UNK        -0.5274 
     30 CA        -72.4204   25.9877  -73.9694 C.3       8 UNK         0.0270 
     31 CB        -73.4653   26.3090  -72.8889 C.3       8 UNK        -0.1976 
     32 N         -73.0574   25.2598  -75.0670 N.am      8 UNK        -0.4313 
     33 C         -72.3956   24.5974  -76.0271 C.2       8 UNK         0.5041 
     34 O         -71.1697   24.4848  -76.0668 O.2       8 UNK        -0.5577 
     35 CA        -73.2445   23.9521  -77.1349 C.3       7 UNK         0.0284 
     36 CB        -73.8579   22.6278  -76.6524 C.3       7 UNK        -0.1958 
     37 N         -74.2970   24.8517  -77.6118 N.am      7 UNK        -0.4454 
     38 C         -74.0696   25.9458  -78.3530 C.2       7 UNK         0.5089 
     39 O         -72.9612   26.2673  -78.7811 O.2       7 UNK        -0.5125 
     40 CA        -75.2796   26.8409  -78.6665 C.3       6 UNK         0.0408 
     41 CB        -75.9174   26.4376  -80.0051 C.3       6 UNK        -0.1791 
     42 N         -76.2989   26.8190  -77.6158 N.am      6 UNK        -0.4762 
     43 C         -76.1470   27.3575  -76.3963 C.2       6 UNK         0.5007 
     44 O         -75.1131   27.9054  -76.0111 O.2       6 UNK        -0.5032 
     45 CA        -77.3392   27.1996  -75.4269 C.3       5 UNK         0.0783 
     46 C46       -78.5141   28.1542  -75.7834 C.3       11 UNK        -0.0857 
     47 S47       -78.0627   29.9196  -75.9600 S.3       11 UNK        -0.2512 
     48 C48       -78.6478   30.6401  -74.3939 C.3       11 UNK         0.0225 
     49 N         -77.7871   25.7994  -75.3730 N.am      5 UNK        -0.4615 
     50 C         -77.0068   24.7554  -75.0413 C.2       4 UNK         0.5053 
     51 O         -75.8537   24.8792  -74.6319 O.2       4 UNK        -0.5105 
     52 CA        -77.5506   23.3272  -75.2537 C.3       4 UNK         0.0263 
     53 CB        -77.9233   22.6617  -73.9194 C.3       4 UNK        -0.1981 
     54 N         -78.6818   23.2379  -76.1759 N.am      4 UNK        -0.4224 
     55 C         -78.6560   23.5697  -77.4750 C.2       3 UNK         0.4895 
     56 O         -77.6351   23.9137  -78.0721 O.2       3 UNK        -0.5091 
     57 CA        -80.0104   23.5794  -78.2122 C.3       3 UNK         0.0250 
     58 CB        -80.1991   22.2751  -79.0026 C.3       3 UNK        -0.1996 
     59 N         -81.1739   23.7912  -77.3350 N.am      3 UNK        -0.4254 
     60 C         -81.3575   24.8578  -76.5405 C.2       2 UNK         0.5004 
     61 O         -80.5505   25.7853  -76.4764 O.2       2 UNK        -0.5226 
     62 CA        -82.5987   24.8775  -75.6267 C.3       2 UNK         0.0269 
     63 CB        -83.5367   23.6656  -75.8053 C.3       2 UNK        -0.1926 
     64 N         -82.1738   24.9436  -74.2265 N.am      2 UNK        -0.4687 
     65 C         -81.8581   26.0670  -73.5644 C.2       1 UNK         0.5165 
     66 O         -81.9996   27.2001  -74.0261 O.2       1 UNK        -0.5079 
     67 H67       -82.3902   22.5124  -70.3007 H         1 UNK         0.0900 
     68 H68       -84.0465   22.6014  -70.9035 H         1 UNK         0.0900 
     69 H69       -83.6350   23.3147  -69.3415 H         1 UNK         0.0900 
     70 H70       -81.0278   23.9819  -71.2985 H         1 UNK         0.2959 
     71 H71       -81.6340   26.7569  -71.5659 H         1 UNK         0.1079 
     72 H72       -79.3314   25.0965  -72.7060 H         1 UNK         0.0837 
     73 H73       -79.3930   26.8153  -72.8087 H         1 UNK         0.0837 
     74 H74       -78.6266   28.0119  -69.1783 H         1 UNK         0.0685 
     75 H75       -80.0262   28.1979  -70.2011 H         1 UNK         0.0685 
     76 H76       -79.8244   29.2202  -72.3917 H         1 UNK         0.1434 
     77 H77       -76.0006   30.6256  -73.7262 H         1 UNK         0.1329 
     78 H78       -76.2937   28.2590  -70.1589 H         1 UNK         0.1335 
     79 H79       -74.0099   29.1877  -72.6593 H         1 UNK         0.0680 
     80 H80       -74.1384   28.9112  -70.9338 H         1 UNK         0.0680 
     81 H81       -71.7492   31.7131  -70.5880 H         1 UNK         0.1032 
     82 H82       -71.8691   30.0330  -71.0261 H         1 UNK         0.1032 
     83 H83       -71.7862   32.3270  -73.0638 H         1 UNK         0.0461 
     84 H84       -68.3647   32.7700  -72.2669 H         1 UNK         0.3453 
     85 H85       -69.9319   33.5047  -72.4821 H         1 UNK         0.3453 
     86 H86       -72.2172   29.5232  -73.4196 H         1 UNK         0.2984 
     87 H87       -72.7588   29.6424  -76.5271 H         1 UNK         0.0554 
     88 H88       -70.5452   29.7684  -77.6050 H         1 UNK         0.0847 
     89 H89       -71.1245   28.1128  -77.6430 H         1 UNK         0.0847 
     90 H90       -69.8848   28.5885  -76.4833 H         1 UNK         0.0847 
     91 H91       -73.3508   27.8247  -75.4900 H         1 UNK         0.3141 
     92 H92       -71.6700   25.3313  -73.5233 H         1 UNK         0.0743 
     93 H93       -73.0187   26.8648  -72.0638 H         1 UNK         0.0784 
     94 H94       -74.2913   26.9002  -73.2863 H         1 UNK         0.0784 
     95 H95       -73.8896   25.3962  -72.4701 H         1 UNK         0.0784 
     96 H96       -74.0757   25.2436  -75.0699 H         1 UNK         0.3213 
     97 H97       -72.5859   23.7300  -77.9777 H         1 UNK         0.0855 
     98 H98       -74.4313   22.7560  -75.7348 H         1 UNK         0.0814 
     99 H99       -73.0754   21.8984  -76.4396 H         1 UNK         0.0814 
    100 H100      -74.5133   22.1900  -77.4058 H         1 UNK         0.0814 
    101 H101      -75.2470   24.6564  -77.3283 H         1 UNK         0.3105 
    102 H102      -74.9154   27.8664  -78.7590 H         1 UNK         0.0547 
    103 H103      -76.3129   25.4215  -79.9755 H         1 UNK         0.0837 
    104 H104      -76.7330   27.1083  -80.2752 H         1 UNK         0.0837 
    105 H105      -75.1853   26.4780  -80.8128 H         1 UNK         0.0837 
    106 H106      -77.1566   26.3262  -77.8259 H         1 UNK         0.3020 
    107 H107      -76.9773   27.4619  -74.4300 H         1 UNK         0.1245 
    108 H108      -79.3098   28.0592  -75.0429 H         1 UNK         0.0781 
    109 H109      -78.9618   27.8516  -76.7312 H         1 UNK         0.0781 
    110 H110      -78.4310   31.7091  -74.3922 H         1 UNK         0.0836 
    111 H111      -79.7339   30.5465  -74.3440 H         1 UNK         0.0836 
    112 H112      -78.7255   25.6257  -75.7215 H         1 UNK         0.3022 
    113 H113      -76.7379   22.7483  -75.6939 H         1 UNK         0.0747 
    114 H114      -77.1390   22.8021  -73.1737 H         1 UNK         0.0793 
    115 H115      -78.0570   21.5869  -74.0437 H         1 UNK         0.0793 
    116 H116      -78.8476   23.0609  -73.5053 H         1 UNK         0.0793 
    117 H117      -79.5675   22.9595  -75.7810 H         1 UNK         0.3047 
    118 H118      -79.9809   24.4094  -78.9214 H         1 UNK         0.0822 
    119 H119      -79.3609   22.1048  -79.6802 H         1 UNK         0.0807 
    120 H120      -81.1027   22.3062  -79.6116 H         1 UNK         0.0807 
    121 H121      -80.2662   21.4086  -78.3435 H         1 UNK         0.0807 
    122 H122      -81.8765   23.0656  -77.3332 H         1 UNK         0.2946 
    123 H123      -83.1607   25.7800  -75.8786 H         1 UNK         0.1144 
    124 H124      -83.9073   23.5971  -76.8291 H         1 UNK         0.0793 
    125 H125      -84.4121   23.7562  -75.1615 H         1 UNK         0.0793 
    126 H126      -83.0474   22.7224  -75.5584 H         1 UNK         0.0793 
    127 H127      -82.0304   24.0639  -73.7526 H         1 UNK         0.2896 
@<TRIPOS>BOND
     1    1    2 1    
     2    1   67 1    
     3    1   68 1    
     4    1   69 1    
     5    2    3 2    
     6    2    4 am   BACKBONE|DICT|INTERRES
     7    4    5 1    
     8    4   70 1    
     9    5    6 1    
    10    5   65 1    
    11    5   71 1    
    12    6    7 1    
    13    6   72 1    
    14    6   73 1    
    15    7    8 1    
    16    8    9 1    
    17    8   74 1    
    18    8   75 1    
    19    9   10 ar   
    20    9   14 ar   
    21   10   11 ar   
    22   10   76 1    
    23   11   12 ar   
    24   11   48 1    
    25   12   13 ar   
    26   12   77 1    
    27   13   14 ar   
    28   13   15 1    
    29   14   78 1    
    30   15   16 1    
    31   15   79 1    
    32   15   80 1    
    33   16   17 1    
    34   17   18 1    
    35   17   81 1    
    36   17   82 1    
    37   18   19 1    
    38   18   22 1    
    39   18   83 1    
    40   19   20 am   BACKBONE|DICT|INTERRES
    41   19   21 2    
    42   20   84 1    
    43   20   85 1    
    44   22   23 am   BACKBONE|DICT|INTERRES
    45   22   86 1    
    46   23   24 2    
    47   23   25 1    
    48   25   26 1    
    49   25   27 1    
    50   25   87 1    
    51   26   88 1    
    52   26   89 1    
    53   26   90 1    
    54   27   28 am   BACKBONE|DICT|INTERRES
    55   27   91 1    
    56   28   29 2    
    57   28   30 1    
    58   30   31 1    
    59   30   32 1    
    60   30   92 1    
    61   31   93 1    
    62   31   94 1    
    63   31   95 1    
    64   32   33 am   BACKBONE|DICT|INTERRES
    65   32   96 1    
    66   33   34 2    
    67   33   35 1    
    68   35   36 1    
    69   35   37 1    
    70   35   97 1    
    71   36   98 1    
    72   36   99 1    
    73   36  100 1    
    74   37   38 am   BACKBONE|DICT|INTERRES
    75   37  101 1    
    76   38   39 2    
    77   38   40 1    
    78   40   41 1    
    79   40   42 1    
    80   40  102 1    
    81   41  103 1    
    82   41  104 1    
    83   41  105 1    
    84   42   43 am   BACKBONE|DICT|INTERRES
    85   42  106 1    
    86   43   44 2    
    87   43   45 1    
    88   45   46 1    
    89   45   49 1    
    90   45  107 1    
    91   46   47 1    
    92   46  108 1    
    93   46  109 1    
    94   47   48 1    
    95   48  110 1    
    96   48  111 1    
    97   49   50 am   BACKBONE|DICT|INTERRES
    98   49  112 1    
    99   50   51 2    
   100   50   52 1    
   101   52   53 1    
   102   52   54 1    
   103   52  113 1    
   104   53  114 1    
   105   53  115 1    
   106   53  116 1    
   107   54   55 am   BACKBONE|DICT|INTERRES
   108   54  117 1    
   109   55   56 2    
   110   55   57 1    
   111   57   58 1    
   112   57   59 1    
   113   57  118 1    
   114   58  119 1    
   115   58  120 1    
   116   58  121 1    
   117   59   60 am   BACKBONE|DICT|INTERRES
   118   59  122 1    
   119   60   61 2    
   120   60   62 1    
   121   62   63 1    
   122   62   64 1    
   123   62  123 1    
   124   63  124 1    
   125   63  125 1    
   126   63  126 1    
   127   64   65 am   BACKBONE|DICT|INTERRES
   128   64  127 1    
   129   65   66 2    
@<TRIPOS>SUBSTRUCTURE
     1 UNK         1 GROUP             0       ****    0 ROOT    
