@<TRIPOS>MOLECULE
3R135
127   129    1
SMALL
USER_CHARGES


@<TRIPOS>ATOM
      1 CA        -85.9565   26.8676  -71.9680 C.3       0 UNK        -0.1998 
      2 C         -85.0097   27.4043  -73.0308 C.2       0 UNK         0.4909 
      3 O         -85.3646   27.4299  -74.2096 O.2       0 UNK        -0.5240 
      4 N         -83.8116   27.8389  -72.6198 N.am      1 UNK        -0.4739 
      5 CA        -82.7396   28.3388  -73.4897 C.3       1 UNK         0.0864 
      6 C6        -81.6283   29.0731  -72.6939 C.3       11 UNK        -0.0881 
      7 S7        -81.1060   28.2204  -71.1612 S.3       11 UNK        -0.2682 
      8 C8        -79.8990   29.4071  -70.4928 C.3       11 UNK         0.0289 
      9 C9        -78.5735   29.3003  -71.2273 C.ar      11 UNK        -0.0687 
     10 C10       -77.6494   28.3232  -70.8541 C.ar      11 UNK        -0.0823 
     11 C11       -76.4571   28.1663  -71.5651 C.ar      11 UNK        -0.0830 
     12 C12       -76.1880   29.0135  -72.6452 C.ar      11 UNK        -0.1021 
     13 C13       -77.0878   30.0245  -73.0109 C.ar      11 UNK        -0.0753 
     14 C14       -78.2791   30.1565  -72.2912 C.ar      11 UNK        -0.0933 
     15 C15       -76.8542   30.9824  -74.1823 C.3       11 UNK         0.0166 
     16 S16       -75.2565   30.8411  -75.0546 S.3       11 UNK        -0.2615 
     17 C17       -74.1072   31.7520  -73.9603 C.3       11 UNK        -0.0865 
     18 CA        -72.7334   31.0546  -73.7245 C.3       10 UNK         0.0862 
     19 C         -72.7466   30.0621  -72.5277 C.2       10 UNK         0.5551 
     20 N         -72.8857   30.5691  -71.3101 N.am      10 UNK        -0.7319 
     21 O         -72.6459   28.8471  -72.6839 O.2       10 UNK        -0.5018 
     22 N         -72.2121   30.4488  -74.9569 N.am      10 UNK        -0.4509 
     23 C         -70.9253   30.2110  -75.2245 C.2       10 UNK         0.4899 
     24 O         -69.9875   30.5963  -74.5239 O.2       10 UNK        -0.4839 
     25 CA        -70.6717   29.3824  -76.4930 C.3       9 UNK         0.0222 
     26 CB        -69.2726   29.6098  -77.1058 C.3       9 UNK        -0.1966 
     27 N         -70.9464   27.9630  -76.2418 N.am      9 UNK        -0.4218 
     28 C         -70.2509   27.1062  -75.4733 C.2       9 UNK         0.5020 
     29 O         -69.1963   27.3923  -74.9047 O.2       9 UNK        -0.5274 
     30 CA        -70.8052   25.6761  -75.2941 C.3       8 UNK         0.0270 
     31 CB        -71.0981   25.3925  -73.8105 C.3       8 UNK        -0.1976 
     32 N         -72.0103   25.4035  -76.0837 N.am      8 UNK        -0.4313 
     33 C         -72.0179   25.1596  -77.4036 C.2       8 UNK         0.5041 
     34 O         -70.9908   25.0492  -78.0744 O.2       8 UNK        -0.5577 
     35 CA        -73.3820   25.0466  -78.1173 C.3       7 UNK         0.0284 
     36 CB        -73.7160   23.5715  -78.3940 C.3       7 UNK        -0.1958 
     37 N         -74.5076   25.6613  -77.4069 N.am      7 UNK        -0.4454 
     38 C         -74.5897   26.9362  -77.0012 C.2       7 UNK         0.5089 
     39 O         -73.7374   27.7912  -77.2477 O.2       7 UNK        -0.5125 
     40 CA        -75.7800   27.2959  -76.0940 C.3       6 UNK         0.0408 
     41 CB        -76.9496   27.8523  -76.9166 C.3       6 UNK        -0.1791 
     42 N         -76.2485   26.2009  -75.2355 N.am      6 UNK        -0.4762 
     43 C         -75.4847   25.5400  -74.3496 C.2       6 UNK         0.5007 
     44 O         -74.2749   25.7201  -74.2207 O.2       6 UNK        -0.5032 
     45 CA        -76.1833   24.4662  -73.5009 C.3       5 UNK         0.0783 
     46 C46       -77.0837   25.0969  -72.4090 C.3       11 UNK        -0.0857 
     47 S47       -76.1781   25.4478  -70.8637 S.3       11 UNK        -0.2512 
     48 C48       -75.4457   27.0960  -71.1672 C.3       11 UNK         0.0225 
     49 N         -76.9242   23.5633  -74.3803 N.am      5 UNK        -0.4615 
     50 C         -76.3597   22.5663  -75.0771 C.2       4 UNK         0.5053 
     51 O         -75.1870   22.2176  -74.9439 O.2       4 UNK        -0.5105 
     52 CA        -77.2389   21.8433  -76.1137 C.3       4 UNK         0.0263 
     53 CB        -77.8594   20.5772  -75.5017 C.3       4 UNK        -0.1981 
     54 N         -78.3036   22.6866  -76.6621 N.am      4 UNK        -0.4224 
     55 C         -78.1069   23.7889  -77.4004 C.2       3 UNK         0.4895 
     56 O         -76.9995   24.1866  -77.7596 O.2       3 UNK        -0.5091 
     57 CA        -79.3555   24.6162  -77.7490 C.3       3 UNK         0.0250 
     58 CB        -79.9521   24.1516  -79.0867 C.3       3 UNK        -0.1996 
     59 N         -80.3909   24.5816  -76.7097 N.am      3 UNK        -0.4254 
     60 C         -80.2364   25.0243  -75.4531 C.2       2 UNK         0.5004 
     61 O         -79.1820   25.4895  -75.0114 O.2       2 UNK        -0.5226 
     62 CA        -81.4460   24.8466  -74.5179 C.3       2 UNK         0.0269 
     63 CB        -81.1477   23.7623  -73.4690 C.3       2 UNK        -0.1926 
     64 N         -81.8549   26.0748  -73.8305 N.am      2 UNK        -0.4687 
     65 C         -82.1777   27.2383  -74.4150 C.2       1 UNK         0.5165 
     66 O         -82.1094   27.4455  -75.6277 O.2       1 UNK        -0.5079 
     67 H67       -86.8781   27.4488  -71.9583 H         1 UNK         0.0900 
     68 H68       -85.5176   26.9113  -70.9713 H         1 UNK         0.0900 
     69 H69       -86.2099   25.8295  -72.1814 H         1 UNK         0.0900 
     70 H70       -83.5732   27.7939  -71.6384 H         1 UNK         0.2959 
     71 H71       -83.1941   29.0783  -74.1535 H         1 UNK         0.1079 
     72 H72       -80.7563   29.2528  -73.3255 H         1 UNK         0.0837 
     73 H73       -81.9935   30.0613  -72.4096 H         1 UNK         0.0837 
     74 H74       -79.7492   29.1994  -69.4322 H         1 UNK         0.0685 
     75 H75       -80.2982   30.4209  -70.5524 H         1 UNK         0.0685 
     76 H76       -77.8725   27.6658  -70.0249 H         1 UNK         0.1434 
     77 H77       -75.2706   28.8737  -73.1959 H         1 UNK         0.1329 
     78 H78       -78.9925   30.9185  -72.5744 H         1 UNK         0.1335 
     79 H79       -77.6416   30.8085  -74.9171 H         1 UNK         0.0680 
     80 H80       -76.9776   32.0112  -73.8407 H         1 UNK         0.0680 
     81 H81       -74.6011   31.9836  -73.0148 H         1 UNK         0.1032 
     82 H82       -73.9302   32.7201  -74.4310 H         1 UNK         0.1032 
     83 H83       -72.0310   31.8406  -73.4391 H         1 UNK         0.0461 
     84 H84       -72.9617   31.5628  -71.1604 H         1 UNK         0.3453 
     85 H85       -72.9000   29.9428  -70.5211 H         1 UNK         0.3453 
     86 H86       -72.9174   30.0640  -75.5701 H         1 UNK         0.2984 
     87 H87       -71.4006   29.7015  -77.2401 H         1 UNK         0.0554 
     88 H88       -69.1429   30.6550  -77.3885 H         1 UNK         0.0847 
     89 H89       -69.1314   29.0100  -78.0048 H         1 UNK         0.0847 
     90 H90       -68.4688   29.3663  -76.4109 H         1 UNK         0.0847 
     91 H91       -71.8290   27.6354  -76.6236 H         1 UNK         0.3141 
     92 H92       -70.0233   24.9859  -75.6176 H         1 UNK         0.0743 
     93 H93       -70.1858   25.4473  -73.2153 H         1 UNK         0.0784 
     94 H94       -71.7978   26.1184  -73.3937 H         1 UNK         0.0784 
     95 H95       -71.5195   24.3973  -73.6675 H         1 UNK         0.0784 
     96 H96       -72.8952   25.4854  -75.5875 H         1 UNK         0.3213 
     97 H97       -73.2849   25.5631  -79.0742 H         1 UNK         0.0855 
     98 H98       -73.8790   23.0165  -77.4690 H         1 UNK         0.0814 
     99 H99       -72.9057   23.0790  -78.9333 H         1 UNK         0.0814 
    100 H100      -74.6139   23.4753  -79.0047 H         1 UNK         0.0814 
    101 H101      -75.3059   25.0600  -77.2217 H         1 UNK         0.3105 
    102 H102      -75.4346   28.0769  -75.4200 H         1 UNK         0.0547 
    103 H103      -76.6488   28.7538  -77.4521 H         1 UNK         0.0837 
    104 H104      -77.2938   27.1335  -77.6591 H         1 UNK         0.0837 
    105 H105      -77.7944   28.1196  -76.2812 H         1 UNK         0.0837 
    106 H106      -77.2411   25.9861  -75.2682 H         1 UNK         0.3020 
    107 H107      -75.4031   23.8818  -73.0064 H         1 UNK         0.1245 
    108 H108      -77.8713   24.3933  -72.1357 H         1 UNK         0.0781 
    109 H109      -77.6104   25.9862  -72.7613 H         1 UNK         0.0781 
    110 H110      -74.9418   27.4226  -70.2569 H         1 UNK         0.0836 
    111 H111      -74.6633   27.0029  -71.9208 H         1 UNK         0.0836 
    112 H112      -77.8774   23.8320  -74.5876 H         1 UNK         0.3022 
    113 H113      -76.5908   21.5449  -76.9408 H         1 UNK         0.0747 
    114 H114      -77.0862   19.9159  -75.1075 H         1 UNK         0.0793 
    115 H115      -78.4194   20.0096  -76.2451 H         1 UNK         0.0793 
    116 H116      -78.5352   20.8146  -74.6789 H         1 UNK         0.0793 
    117 H117      -79.2520   22.4340  -76.4267 H         1 UNK         0.3047 
    118 H118      -79.0424   25.6549  -77.8603 H         1 UNK         0.0822 
    119 H119      -80.7816   24.7887  -79.3944 H         1 UNK         0.0807 
    120 H120      -80.3171   23.1251  -79.0341 H         1 UNK         0.0807 
    121 H121      -79.2049   24.1914  -79.8809 H         1 UNK         0.0807 
    122 H122      -81.2892   24.2124  -76.9876 H         1 UNK         0.2946 
    123 H123      -82.3011   24.5190  -75.1130 H         1 UNK         0.1144 
    124 H124      -80.8523   22.8253  -73.9432 H         1 UNK         0.0793 
    125 H125      -82.0241   23.5500  -72.8564 H         1 UNK         0.0793 
    126 H126      -80.3374   24.0605  -72.8024 H         1 UNK         0.0793 
    127 H127      -81.9226   26.0273  -72.8241 H         1 UNK         0.2896 
@<TRIPOS>BOND
     1    1    2 1    
     2    1   67 1    
     3    1   68 1    
     4    1   69 1    
     5    2    3 2    
     6    2    4 am   BACKBONE|DICT|INTERRES
     7    4    5 1    
     8    4   70 1    
     9    5    6 1    
    10    5   65 1    
    11    5   71 1    
    12    6    7 1    
    13    6   72 1    
    14    6   73 1    
    15    7    8 1    
    16    8    9 1    
    17    8   74 1    
    18    8   75 1    
    19    9   10 ar   
    20    9   14 ar   
    21   10   11 ar   
    22   10   76 1    
    23   11   12 ar   
    24   11   48 1    
    25   12   13 ar   
    26   12   77 1    
    27   13   14 ar   
    28   13   15 1    
    29   14   78 1    
    30   15   16 1    
    31   15   79 1    
    32   15   80 1    
    33   16   17 1    
    34   17   18 1    
    35   17   81 1    
    36   17   82 1    
    37   18   19 1    
    38   18   22 1    
    39   18   83 1    
    40   19   20 am   BACKBONE|DICT|INTERRES
    41   19   21 2    
    42   20   84 1    
    43   20   85 1    
    44   22   23 am   BACKBONE|DICT|INTERRES
    45   22   86 1    
    46   23   24 2    
    47   23   25 1    
    48   25   26 1    
    49   25   27 1    
    50   25   87 1    
    51   26   88 1    
    52   26   89 1    
    53   26   90 1    
    54   27   28 am   BACKBONE|DICT|INTERRES
    55   27   91 1    
    56   28   29 2    
    57   28   30 1    
    58   30   31 1    
    59   30   32 1    
    60   30   92 1    
    61   31   93 1    
    62   31   94 1    
    63   31   95 1    
    64   32   33 am   BACKBONE|DICT|INTERRES
    65   32   96 1    
    66   33   34 2    
    67   33   35 1    
    68   35   36 1    
    69   35   37 1    
    70   35   97 1    
    71   36   98 1    
    72   36   99 1    
    73   36  100 1    
    74   37   38 am   BACKBONE|DICT|INTERRES
    75   37  101 1    
    76   38   39 2    
    77   38   40 1    
    78   40   41 1    
    79   40   42 1    
    80   40  102 1    
    81   41  103 1    
    82   41  104 1    
    83   41  105 1    
    84   42   43 am   BACKBONE|DICT|INTERRES
    85   42  106 1    
    86   43   44 2    
    87   43   45 1    
    88   45   46 1    
    89   45   49 1    
    90   45  107 1    
    91   46   47 1    
    92   46  108 1    
    93   46  109 1    
    94   47   48 1    
    95   48  110 1    
    96   48  111 1    
    97   49   50 am   BACKBONE|DICT|INTERRES
    98   49  112 1    
    99   50   51 2    
   100   50   52 1    
   101   52   53 1    
   102   52   54 1    
   103   52  113 1    
   104   53  114 1    
   105   53  115 1    
   106   53  116 1    
   107   54   55 am   BACKBONE|DICT|INTERRES
   108   54  117 1    
   109   55   56 2    
   110   55   57 1    
   111   57   58 1    
   112   57   59 1    
   113   57  118 1    
   114   58  119 1    
   115   58  120 1    
   116   58  121 1    
   117   59   60 am   BACKBONE|DICT|INTERRES
   118   59  122 1    
   119   60   61 2    
   120   60   62 1    
   121   62   63 1    
   122   62   64 1    
   123   62  123 1    
   124   63  124 1    
   125   63  125 1    
   126   63  126 1    
   127   64   65 am   BACKBONE|DICT|INTERRES
   128   64  127 1    
   129   65   66 2    
@<TRIPOS>SUBSTRUCTURE
     1 UNK         1 GROUP             0       ****    0 ROOT    
