@<TRIPOS>MOLECULE
3R135
127   129    1
SMALL
USER_CHARGES


@<TRIPOS>ATOM
      1 CA        -83.9557   26.8557  -75.4686 C.3       0 UNK        -0.1998 
      2 C         -83.3274   26.4311  -74.1494 C.2       0 UNK         0.4909 
      3 O         -84.0349   25.9468  -73.2652 O.2       0 UNK        -0.5240 
      4 N         -82.0075   26.6201  -74.0147 N.am      1 UNK        -0.4739 
      5 CA        -81.1871   26.2401  -72.8571 C.3       1 UNK         0.0864 
      6 C6        -81.6291   26.9490  -71.5446 C.3       11 UNK        -0.0881 
      7 S7        -80.2282   27.2880  -70.4236 S.3       11 UNK        -0.2682 
      8 C8        -80.1470   29.1055  -70.4636 C.3       11 UNK         0.0289 
      9 C9        -79.3953   29.6305  -71.6797 C.ar      11 UNK        -0.0687 
     10 C10       -80.0771   29.9518  -72.8600 C.ar      11 UNK        -0.0823 
     11 C11       -79.3979   30.5151  -73.9472 C.ar      11 UNK        -0.0830 
     12 C12       -78.0271   30.7686  -73.8303 C.ar      11 UNK        -0.1021 
     13 C13       -77.3289   30.4213  -72.6727 C.ar      11 UNK        -0.0753 
     14 C14       -78.0164   29.8489  -71.6002 C.ar      11 UNK        -0.0933 
     15 C15       -75.8368   30.6967  -72.5889 C.3       11 UNK         0.0166 
     16 S16       -74.9160   29.6665  -73.7696 S.3       11 UNK        -0.2615 
     17 C17       -74.7693   28.0898  -72.8610 C.3       11 UNK        -0.0865 
     18 CA        -73.2960   27.8033  -72.4683 C.3       10 UNK         0.0862 
     19 C         -73.1848   26.5369  -71.5691 C.2       10 UNK         0.5551 
     20 N         -72.4716   25.4874  -71.9635 N.am      10 UNK        -0.7319 
     21 O         -73.7566   26.5116  -70.4826 O.2       10 UNK        -0.5018 
     22 N         -72.4370   27.7813  -73.6589 N.am      10 UNK        -0.4509 
     23 C         -71.1099   27.9479  -73.6826 C.2       10 UNK         0.4899 
     24 O         -70.4345   28.2403  -72.6949 O.2       10 UNK        -0.4839 
     25 CA        -70.4359   27.7292  -75.0545 C.3       9 UNK         0.0222 
     26 CB        -68.9391   27.3717  -74.9373 C.3       9 UNK        -0.1966 
     27 N         -71.1517   26.7469  -75.8856 N.am      9 UNK        -0.4218 
     28 C         -71.4047   25.4644  -75.5701 C.2       9 UNK         0.5020 
     29 O         -70.9762   24.9260  -74.5477 O.2       9 UNK        -0.5274 
     30 CA        -72.3434   24.6589  -76.4885 C.3       8 UNK         0.0270 
     31 CB        -73.3963   23.9002  -75.6601 C.3       8 UNK        -0.1976 
     32 N         -73.0259   25.4938  -77.4845 N.am      8 UNK        -0.4313 
     33 C         -72.5572   25.7238  -78.7189 C.2       8 UNK         0.5041 
     34 O         -71.5220   25.2220  -79.1590 O.2       8 UNK        -0.5577 
     35 CA        -73.3480   26.6952  -79.6131 C.3       7 UNK         0.0284 
     36 CB        -74.4148   25.9419  -80.4222 C.3       7 UNK        -0.1958 
     37 N         -73.9802   27.8121  -78.9057 N.am      7 UNK        -0.4454 
     38 C         -73.3591   28.7346  -78.1610 C.2       7 UNK         0.5089 
     39 O         -72.1560   28.7009  -77.9026 O.2       7 UNK        -0.5125 
     40 CA        -74.2152   29.8832  -77.5918 C.3       6 UNK         0.0408 
     41 CB        -74.3920   31.0115  -78.6254 C.3       6 UNK        -0.1791 
     42 N         -75.5017   29.4594  -77.0220 N.am      6 UNK        -0.4762 
     43 C         -76.5702   28.9352  -77.6400 C.2       6 UNK         0.5007 
     44 O         -76.6547   28.7732  -78.8598 O.2       6 UNK        -0.5032 
     45 CA        -77.6991   28.4144  -76.7267 C.3       5 UNK         0.0783 
     46 C46       -79.0803   29.0353  -77.0625 C.3       11 UNK        -0.0857 
     47 S47       -79.1980   30.8296  -76.7552 S.3       11 UNK        -0.2512 
     48 C48       -80.1726   30.9017  -75.2074 C.3       11 UNK         0.0225 
     49 N         -77.7854   26.9525  -76.7809 N.am      5 UNK        -0.4615 
     50 C         -76.7994   26.0648  -76.5947 C.2       4 UNK         0.5053 
     51 O         -75.6133   26.3458  -76.4005 O.2       4 UNK        -0.5105 
     52 CA        -77.2339   24.5894  -76.6200 C.3       4 UNK         0.0263 
     53 CB        -76.6342   23.8562  -77.8305 C.3       4 UNK        -0.1981 
     54 N         -76.8904   23.8836  -75.3815 N.am      4 UNK        -0.4224 
     55 C         -77.3174   24.2427  -74.1628 C.2       3 UNK         0.4895 
     56 O         -77.9978   25.2478  -73.9373 O.2       3 UNK        -0.5091 
     57 CA        -76.9356   23.3276  -72.9915 C.3       3 UNK         0.0250 
     58 CB        -75.6763   23.8505  -72.2834 C.3       3 UNK        -0.1996 
     59 N         -78.0533   23.3465  -72.0530 N.am      3 UNK        -0.4254 
     60 C         -79.0029   22.4075  -71.9669 C.2       2 UNK         0.5004 
     61 O         -78.9113   21.2802  -72.4542 O.2       2 UNK        -0.5226 
     62 CA        -80.3022   22.8298  -71.2578 C.3       2 UNK         0.0269 
     63 CB        -80.1929   22.6147  -69.7398 C.3       2 UNK        -0.1926 
     64 N         -80.6478   24.2305  -71.5314 N.am      2 UNK        -0.4687 
     65 C         -81.0434   24.7026  -72.7240 C.2       1 UNK         0.5165 
     66 O         -81.2539   23.9747  -73.6986 O.2       1 UNK        -0.5079 
     67 H67       -84.4089   25.9959  -75.9612 H         1 UNK         0.0900 
     68 H68       -84.7348   27.5968  -75.2916 H         1 UNK         0.0900 
     69 H69       -83.2240   27.2900  -76.1495 H         1 UNK         0.0900 
     70 H70       -81.4875   26.9873  -74.7982 H         1 UNK         0.2959 
     71 H71       -80.1871   26.5983  -73.1095 H         1 UNK         0.1079 
     72 H72       -82.1193   27.8942  -71.7793 H         1 UNK         0.0837 
     73 H73       -82.3858   26.3685  -71.0129 H         1 UNK         0.0837 
     74 H74       -81.1517   29.5289  -70.4210 H         1 UNK         0.0685 
     75 H75       -79.6475   29.4445  -69.5547 H         1 UNK         0.0685 
     76 H76       -81.1439   29.7874  -72.9222 H         1 UNK         0.1434 
     77 H77       -77.4875   31.2353  -74.6425 H         1 UNK         0.1329 
     78 H78       -77.4847   29.5967  -70.6929 H         1 UNK         0.1335 
     79 H79       -75.4551   30.5390  -71.5789 H         1 UNK         0.0680 
     80 H80       -75.6566   31.7465  -72.8246 H         1 UNK         0.0680 
     81 H81       -75.4100   28.1169  -71.9774 H         1 UNK         0.1032 
     82 H82       -75.1631   27.2893  -73.4913 H         1 UNK         0.1032 
     83 H83       -72.9583   28.6332  -71.8444 H         1 UNK         0.0461 
     84 H84       -72.4093   24.6856  -71.3577 H         1 UNK         0.3453 
     85 H85       -71.9737   25.4872  -72.8462 H         1 UNK         0.3453 
     86 H86       -72.9011   27.5545  -74.5247 H         1 UNK         0.2984 
     87 H87       -70.5072   28.6816  -75.5815 H         1 UNK         0.0554 
     88 H88       -68.4880   27.2263  -75.9187 H         1 UNK         0.0847 
     89 H89       -68.7829   26.4616  -74.3575 H         1 UNK         0.0847 
     90 H90       -68.3843   28.1696  -74.4423 H         1 UNK         0.0847 
     91 H91       -71.5468   27.1220  -76.7427 H         1 UNK         0.3141 
     92 H92       -71.7240   23.9142  -76.9925 H         1 UNK         0.0743 
     93 H93       -74.0546   24.5861  -75.1270 H         1 UNK         0.0784 
     94 H94       -74.0069   23.2569  -76.2909 H         1 UNK         0.0784 
     95 H95       -72.9289   23.2536  -74.9162 H         1 UNK         0.0784 
     96 H96       -73.8953   25.9364  -77.1910 H         1 UNK         0.3213 
     97 H97       -72.6350   27.1290  -80.3174 H         1 UNK         0.0855 
     98 H98       -75.2057   25.5556  -79.7805 H         1 UNK         0.0814 
     99 H99       -73.9799   25.0947  -80.9547 H         1 UNK         0.0814 
    100 H100      -74.8767   26.5893  -81.1679 H         1 UNK         0.0814 
    101 H101      -74.9791   27.9434  -79.0447 H         1 UNK         0.3105 
    102 H102      -73.6541   30.2989  -76.7532 H         1 UNK         0.0547 
    103 H103      -74.9423   31.8523  -78.2034 H         1 UNK         0.0837 
    104 H104      -73.4234   31.3904  -78.9540 H         1 UNK         0.0837 
    105 H105      -74.9242   30.6751  -79.5154 H         1 UNK         0.0837 
    106 H106      -75.5204   29.4842  -76.0091 H         1 UNK         0.3020 
    107 H107      -77.4562   28.6663  -75.6923 H         1 UNK         0.1245 
    108 H108      -79.8589   28.5395  -76.4810 H         1 UNK         0.0781 
    109 H109      -79.3358   28.8537  -78.1085 H         1 UNK         0.0781 
    110 H110      -81.0612   30.2781  -75.3174 H         1 UNK         0.0836 
    111 H111      -80.5324   31.9234  -75.0800 H         1 UNK         0.0836 
    112 H112      -78.7102   26.5871  -76.9497 H         1 UNK         0.3022 
    113 H113      -78.3213   24.5429  -76.7121 H         1 UNK         0.0747 
    114 H114      -76.9121   22.8021  -77.8388 H         1 UNK         0.0793 
    115 H115      -77.0013   24.2900  -78.7613 H         1 UNK         0.0793 
    116 H116      -75.5469   23.9187  -77.8521 H         1 UNK         0.0793 
    117 H117      -76.3201   23.0566  -75.4761 H         1 UNK         0.3047 
    118 H118      -76.7522   22.3147  -73.3565 H         1 UNK         0.0822 
    119 H119      -75.8009   24.8801  -71.9452 H         1 UNK         0.0807 
    120 H120      -74.8130   23.8268  -72.9482 H         1 UNK         0.0807 
    121 H121      -75.4296   23.2422  -71.4131 H         1 UNK         0.0807 
    122 H122      -78.2709   24.2563  -71.6717 H         1 UNK         0.2946 
    123 H123      -81.1071   22.1976  -71.6402 H         1 UNK         0.1144 
    124 H124      -79.9520   21.5757  -69.5105 H         1 UNK         0.0793 
    125 H125      -79.4134   23.2358  -69.2967 H         1 UNK         0.0793 
    126 H126      -81.1327   22.8462  -69.2382 H         1 UNK         0.0793 
    127 H127      -80.4991   24.8973  -70.7845 H         1 UNK         0.2896 
@<TRIPOS>BOND
     1    1    2 1    
     2    1   67 1    
     3    1   68 1    
     4    1   69 1    
     5    2    3 2    
     6    2    4 am   BACKBONE|DICT|INTERRES
     7    4    5 1    
     8    4   70 1    
     9    5    6 1    
    10    5   65 1    
    11    5   71 1    
    12    6    7 1    
    13    6   72 1    
    14    6   73 1    
    15    7    8 1    
    16    8    9 1    
    17    8   74 1    
    18    8   75 1    
    19    9   10 ar   
    20    9   14 ar   
    21   10   11 ar   
    22   10   76 1    
    23   11   12 ar   
    24   11   48 1    
    25   12   13 ar   
    26   12   77 1    
    27   13   14 ar   
    28   13   15 1    
    29   14   78 1    
    30   15   16 1    
    31   15   79 1    
    32   15   80 1    
    33   16   17 1    
    34   17   18 1    
    35   17   81 1    
    36   17   82 1    
    37   18   19 1    
    38   18   22 1    
    39   18   83 1    
    40   19   20 am   BACKBONE|DICT|INTERRES
    41   19   21 2    
    42   20   84 1    
    43   20   85 1    
    44   22   23 am   BACKBONE|DICT|INTERRES
    45   22   86 1    
    46   23   24 2    
    47   23   25 1    
    48   25   26 1    
    49   25   27 1    
    50   25   87 1    
    51   26   88 1    
    52   26   89 1    
    53   26   90 1    
    54   27   28 am   BACKBONE|DICT|INTERRES
    55   27   91 1    
    56   28   29 2    
    57   28   30 1    
    58   30   31 1    
    59   30   32 1    
    60   30   92 1    
    61   31   93 1    
    62   31   94 1    
    63   31   95 1    
    64   32   33 am   BACKBONE|DICT|INTERRES
    65   32   96 1    
    66   33   34 2    
    67   33   35 1    
    68   35   36 1    
    69   35   37 1    
    70   35   97 1    
    71   36   98 1    
    72   36   99 1    
    73   36  100 1    
    74   37   38 am   BACKBONE|DICT|INTERRES
    75   37  101 1    
    76   38   39 2    
    77   38   40 1    
    78   40   41 1    
    79   40   42 1    
    80   40  102 1    
    81   41  103 1    
    82   41  104 1    
    83   41  105 1    
    84   42   43 am   BACKBONE|DICT|INTERRES
    85   42  106 1    
    86   43   44 2    
    87   43   45 1    
    88   45   46 1    
    89   45   49 1    
    90   45  107 1    
    91   46   47 1    
    92   46  108 1    
    93   46  109 1    
    94   47   48 1    
    95   48  110 1    
    96   48  111 1    
    97   49   50 am   BACKBONE|DICT|INTERRES
    98   49  112 1    
    99   50   51 2    
   100   50   52 1    
   101   52   53 1    
   102   52   54 1    
   103   52  113 1    
   104   53  114 1    
   105   53  115 1    
   106   53  116 1    
   107   54   55 am   BACKBONE|DICT|INTERRES
   108   54  117 1    
   109   55   56 2    
   110   55   57 1    
   111   57   58 1    
   112   57   59 1    
   113   57  118 1    
   114   58  119 1    
   115   58  120 1    
   116   58  121 1    
   117   59   60 am   BACKBONE|DICT|INTERRES
   118   59  122 1    
   119   60   61 2    
   120   60   62 1    
   121   62   63 1    
   122   62   64 1    
   123   62  123 1    
   124   63  124 1    
   125   63  125 1    
   126   63  126 1    
   127   64   65 am   BACKBONE|DICT|INTERRES
   128   64  127 1    
   129   65   66 2    
@<TRIPOS>SUBSTRUCTURE
     1 UNK         1 GROUP             0       ****    0 ROOT    
