@<TRIPOS>MOLECULE
3R135
127   129    1
SMALL
USER_CHARGES


@<TRIPOS>ATOM
      1 CA        -83.4394   23.7474  -73.2983 C.3       0 UNK        -0.1998 
      2 C         -82.8385   25.1286  -73.5078 C.2       0 UNK         0.4909 
      3 O         -82.8973   25.6608  -74.6167 O.2       0 UNK        -0.5240 
      4 N         -82.2522   25.7157  -72.4557 N.am      1 UNK        -0.4739 
      5 CA        -81.5342   26.9935  -72.5175 C.3       1 UNK         0.0864 
      6 C6        -81.2128   27.5316  -71.1015 C.3       11 UNK        -0.0881 
      7 S7        -81.0155   29.3461  -71.0739 S.3       11 UNK        -0.2682 
      8 C8        -79.3663   29.5493  -70.3273 C.3       11 UNK         0.0289 
      9 C9        -78.2505   29.3279  -71.3375 C.ar      11 UNK        -0.0687 
     10 C10       -77.6137   28.0883  -71.4300 C.ar      11 UNK        -0.0823 
     11 C11       -76.5930   27.8768  -72.3604 C.ar      11 UNK        -0.0830 
     12 C12       -76.1849   28.9438  -73.1731 C.ar      11 UNK        -0.1021 
     13 C13       -76.8239   30.1905  -73.1089 C.ar      11 UNK        -0.0753 
     14 C14       -77.8535   30.3692  -72.1808 C.ar      11 UNK        -0.0933 
     15 C15       -76.4758   31.3618  -74.0344 C.3       11 UNK         0.0166 
     16 S16       -75.1114   31.0612  -75.2127 S.3       11 UNK        -0.2615 
     17 C17       -73.8031   32.1948  -74.6237 C.3       11 UNK        -0.0865 
     18 CA        -72.9857   31.7036  -73.3958 C.3       10 UNK         0.0862 
     19 C         -73.6853   32.0468  -72.0455 C.2       10 UNK         0.5551 
     20 N         -74.0358   31.0796  -71.2070 N.am      10 UNK        -0.7319 
     21 O         -73.9009   33.2199  -71.7508 O.2       10 UNK        -0.5018 
     22 N         -72.5411   30.3070  -73.5426 N.am      10 UNK        -0.4509 
     23 C         -71.5371   29.7544  -72.8465 C.2       10 UNK         0.4899 
     24 O         -70.8001   30.3834  -72.0872 O.2       10 UNK        -0.4839 
     25 CA        -71.3225   28.2463  -73.0089 C.3       9 UNK         0.0222 
     26 CB        -72.3033   27.4745  -72.1062 C.3       9 UNK        -0.1966 
     27 N         -71.4586   27.8391  -74.4070 N.am      9 UNK        -0.4218 
     28 C         -71.0434   26.6787  -74.9253 C.2       9 UNK         0.5020 
     29 O         -70.5149   25.7829  -74.2634 O.2       9 UNK        -0.5274 
     30 CA        -71.2547   26.4986  -76.4414 C.3       8 UNK         0.0270 
     31 CB        -70.7355   25.1446  -76.9600 C.3       8 UNK        -0.1976 
     32 N         -72.6611   26.6564  -76.8254 N.am      8 UNK        -0.4313 
     33 C         -73.2884   27.8319  -76.9778 C.2       8 UNK         0.5041 
     34 O         -72.7350   28.9066  -76.7343 O.2       8 UNK        -0.5577 
     35 CA        -74.7652   27.8421  -77.4281 C.3       7 UNK         0.0284 
     36 CB        -74.9981   28.8150  -78.6010 C.3       7 UNK        -0.1958 
     37 N         -75.3447   26.5254  -77.7180 N.am      7 UNK        -0.4454 
     38 C         -75.0114   25.6387  -78.6667 C.2       7 UNK         0.5089 
     39 O         -74.1484   25.8319  -79.5238 O.2       7 UNK        -0.5125 
     40 CA        -75.7457   24.2817  -78.5869 C.3       6 UNK         0.0408 
     41 CB        -75.0936   23.1888  -79.4590 C.3       6 UNK        -0.1791 
     42 N         -75.9065   23.8214  -77.1985 N.am      6 UNK        -0.4762 
     43 C         -74.9289   23.6071  -76.3017 C.2       6 UNK         0.5007 
     44 O         -73.7328   23.6508  -76.5871 O.2       6 UNK        -0.5032 
     45 CA        -75.3349   23.3563  -74.8331 C.3       5 UNK         0.0783 
     46 C46       -74.6804   24.3867  -73.8743 C.3       11 UNK        -0.0857 
     47 S47       -75.2721   26.0981  -74.1104 S.3       11 UNK        -0.2512 
     48 C48       -75.9744   26.4815  -72.4692 C.3       11 UNK         0.0225 
     49 N         -76.7920   23.3124  -74.6611 N.am      5 UNK        -0.4615 
     50 C         -77.5037   22.1980  -74.4487 C.2       4 UNK         0.5053 
     51 O         -77.0098   21.0734  -74.3650 O.2       4 UNK        -0.5105 
     52 CA        -79.0278   22.3565  -74.3116 C.3       4 UNK         0.0263 
     53 CB        -79.4177   22.5735  -72.8407 C.3       4 UNK        -0.1981 
     54 N         -79.5598   23.4471  -75.1337 N.am      4 UNK        -0.4224 
     55 C         -79.6741   23.3848  -76.4707 C.2       3 UNK         0.4895 
     56 O         -79.3657   22.3930  -77.1315 O.2       3 UNK        -0.5091 
     57 CA        -80.2022   24.6260  -77.2138 C.3       3 UNK         0.0250 
     58 CB        -81.6670   24.4226  -77.6323 C.3       3 UNK        -0.1996 
     59 N         -80.0772   25.8693  -76.4499 N.am      3 UNK        -0.4254 
     60 C         -78.9065   26.4567  -76.1628 C.2       2 UNK         0.5004 
     61 O         -77.8201   26.0117  -76.5273 O.2       2 UNK        -0.5226 
     62 CA        -78.9376   27.7141  -75.2801 C.3       2 UNK         0.0269 
     63 CB        -78.9355   28.9850  -76.1419 C.3       2 UNK        -0.1926 
     64 N         -80.0593   27.7535  -74.3357 N.am      2 UNK        -0.4687 
     65 C         -80.2672   26.8363  -73.3810 C.2       1 UNK         0.5165 
     66 O         -79.5284   25.8658  -73.1958 O.2       1 UNK        -0.5079 
     67 H67       -82.9623   23.0282  -73.9638 H         1 UNK         0.0900 
     68 H68       -83.3122   23.3983  -72.2738 H         1 UNK         0.0900 
     69 H69       -84.5056   23.7645  -73.5221 H         1 UNK         0.0900 
     70 H70       -82.2057   25.2253  -71.5741 H         1 UNK         0.2959 
     71 H71       -82.2047   27.7012  -73.0111 H         1 UNK         0.1079 
     72 H72       -80.3418   27.0333  -70.6723 H         1 UNK         0.0837 
     73 H73       -82.0387   27.3075  -70.4244 H         1 UNK         0.0837 
     74 H74       -79.2584   28.8768  -69.4748 H         1 UNK         0.0685 
     75 H75       -79.2905   30.5599  -69.9231 H         1 UNK         0.0685 
     76 H76       -77.9289   27.2760  -70.7898 H         1 UNK         0.1434 
     77 H77       -75.3900   28.7838  -73.8833 H         1 UNK         0.1329 
     78 H78       -78.3580   31.3239  -72.1191 H         1 UNK         0.1335 
     79 H79       -76.2587   32.2439  -73.4314 H         1 UNK         0.0680 
     80 H80       -77.3630   31.6103  -74.6178 H         1 UNK         0.0680 
     81 H81       -74.2276   33.1862  -74.4535 H         1 UNK         0.1032 
     82 H82       -73.1155   32.3272  -75.4604 H         1 UNK         0.1032 
     83 H83       -72.0769   32.3089  -73.3844 H         1 UNK         0.0461 
     84 H84       -74.4871   31.3192  -70.3392 H         1 UNK         0.3453 
     85 H85       -73.8873   30.1151  -71.4501 H         1 UNK         0.3453 
     86 H86       -73.1199   29.7363  -74.1411 H         1 UNK         0.2984 
     87 H87       -70.3025   28.0224  -72.6892 H         1 UNK         0.0554 
     88 H88       -72.1811   27.7617  -71.0611 H         1 UNK         0.0847 
     89 H89       -72.1492   26.3971  -72.1638 H         1 UNK         0.0847 
     90 H90       -73.3364   27.6795  -72.3823 H         1 UNK         0.0847 
     91 H91       -71.8477   28.5175  -75.0588 H         1 UNK         0.3141 
     92 H92       -70.6725   27.2775  -76.9385 H         1 UNK         0.0743 
     93 H93       -69.6619   25.0503  -76.7925 H         1 UNK         0.0784 
     94 H94       -70.9076   25.0350  -78.0310 H         1 UNK         0.0784 
     95 H95       -71.2155   24.3060  -76.4553 H         1 UNK         0.0784 
     96 H96       -73.1825   25.8014  -76.9786 H         1 UNK         0.3213 
     97 H97       -75.3280   28.2215  -76.5737 H         1 UNK         0.0855 
     98 H98       -74.4279   28.5285  -79.4849 H         1 UNK         0.0814 
     99 H99       -74.6945   29.8279  -78.3330 H         1 UNK         0.0814 
    100 H100      -76.0516   28.8576  -78.8771 H         1 UNK         0.0814 
    101 H101      -76.1137   26.2547  -77.1041 H         1 UNK         0.3105 
    102 H102      -76.7526   24.4558  -78.9694 H         1 UNK         0.0547 
    103 H103      -75.6389   22.2479  -79.3889 H         1 UNK         0.0837 
    104 H104      -74.0594   23.0004  -79.1694 H         1 UNK         0.0837 
    105 H105      -75.0869   23.4815  -80.5096 H         1 UNK         0.0837 
    106 H106      -76.8575   23.8069  -76.8567 H         1 UNK         0.3020 
    107 H107      -74.9089   22.3812  -74.5859 H         1 UNK         0.1245 
    108 H108      -73.5944   24.3855  -73.9893 H         1 UNK         0.0781 
    109 H109      -74.8599   24.0818  -72.8424 H         1 UNK         0.0781 
    110 H110      -75.2022   26.3746  -71.7071 H         1 UNK         0.0836 
    111 H111      -76.7361   25.7308  -72.2503 H         1 UNK         0.0836 
    112 H112      -77.2685   24.2033  -74.7052 H         1 UNK         0.3022 
    113 H113      -79.4894   21.4247  -74.6459 H         1 UNK         0.0747 
    114 H114      -80.4943   22.6981  -72.7263 H         1 UNK         0.0793 
    115 H115      -79.1240   21.7169  -72.2327 H         1 UNK         0.0793 
    116 H116      -78.9300   23.4513  -72.4162 H         1 UNK         0.0793 
    117 H117      -79.7883   24.3104  -74.6533 H         1 UNK         0.3047 
    118 H118      -79.6051   24.7346  -78.1220 H         1 UNK         0.0822 
    119 H119      -82.0470   25.2811  -78.1863 H         1 UNK         0.0807 
    120 H120      -82.3163   24.2624  -76.7716 H         1 UNK         0.0807 
    121 H121      -81.7684   23.5502  -78.2794 H         1 UNK         0.0807 
    122 H122      -80.9292   26.2670  -76.0764 H         1 UNK         0.2946 
    123 H123      -78.0189   27.6968  -74.6959 H         1 UNK         0.1144 
    124 H124      -78.8766   29.8805  -75.5237 H         1 UNK         0.0793 
    125 H125      -79.8320   29.0582  -76.7584 H         1 UNK         0.0793 
    126 H126      -78.0736   28.9992  -76.8110 H         1 UNK         0.0793 
    127 H127      -80.7045   28.5250  -74.4269 H         1 UNK         0.2896 
@<TRIPOS>BOND
     1    1    2 1    
     2    1   67 1    
     3    1   68 1    
     4    1   69 1    
     5    2    3 2    
     6    2    4 am   BACKBONE|DICT|INTERRES
     7    4    5 1    
     8    4   70 1    
     9    5    6 1    
    10    5   65 1    
    11    5   71 1    
    12    6    7 1    
    13    6   72 1    
    14    6   73 1    
    15    7    8 1    
    16    8    9 1    
    17    8   74 1    
    18    8   75 1    
    19    9   10 ar   
    20    9   14 ar   
    21   10   11 ar   
    22   10   76 1    
    23   11   12 ar   
    24   11   48 1    
    25   12   13 ar   
    26   12   77 1    
    27   13   14 ar   
    28   13   15 1    
    29   14   78 1    
    30   15   16 1    
    31   15   79 1    
    32   15   80 1    
    33   16   17 1    
    34   17   18 1    
    35   17   81 1    
    36   17   82 1    
    37   18   19 1    
    38   18   22 1    
    39   18   83 1    
    40   19   20 am   BACKBONE|DICT|INTERRES
    41   19   21 2    
    42   20   84 1    
    43   20   85 1    
    44   22   23 am   BACKBONE|DICT|INTERRES
    45   22   86 1    
    46   23   24 2    
    47   23   25 1    
    48   25   26 1    
    49   25   27 1    
    50   25   87 1    
    51   26   88 1    
    52   26   89 1    
    53   26   90 1    
    54   27   28 am   BACKBONE|DICT|INTERRES
    55   27   91 1    
    56   28   29 2    
    57   28   30 1    
    58   30   31 1    
    59   30   32 1    
    60   30   92 1    
    61   31   93 1    
    62   31   94 1    
    63   31   95 1    
    64   32   33 am   BACKBONE|DICT|INTERRES
    65   32   96 1    
    66   33   34 2    
    67   33   35 1    
    68   35   36 1    
    69   35   37 1    
    70   35   97 1    
    71   36   98 1    
    72   36   99 1    
    73   36  100 1    
    74   37   38 am   BACKBONE|DICT|INTERRES
    75   37  101 1    
    76   38   39 2    
    77   38   40 1    
    78   40   41 1    
    79   40   42 1    
    80   40  102 1    
    81   41  103 1    
    82   41  104 1    
    83   41  105 1    
    84   42   43 am   BACKBONE|DICT|INTERRES
    85   42  106 1    
    86   43   44 2    
    87   43   45 1    
    88   45   46 1    
    89   45   49 1    
    90   45  107 1    
    91   46   47 1    
    92   46  108 1    
    93   46  109 1    
    94   47   48 1    
    95   48  110 1    
    96   48  111 1    
    97   49   50 am   BACKBONE|DICT|INTERRES
    98   49  112 1    
    99   50   51 2    
   100   50   52 1    
   101   52   53 1    
   102   52   54 1    
   103   52  113 1    
   104   53  114 1    
   105   53  115 1    
   106   53  116 1    
   107   54   55 am   BACKBONE|DICT|INTERRES
   108   54  117 1    
   109   55   56 2    
   110   55   57 1    
   111   57   58 1    
   112   57   59 1    
   113   57  118 1    
   114   58  119 1    
   115   58  120 1    
   116   58  121 1    
   117   59   60 am   BACKBONE|DICT|INTERRES
   118   59  122 1    
   119   60   61 2    
   120   60   62 1    
   121   62   63 1    
   122   62   64 1    
   123   62  123 1    
   124   63  124 1    
   125   63  125 1    
   126   63  126 1    
   127   64   65 am   BACKBONE|DICT|INTERRES
   128   64  127 1    
   129   65   66 2    
@<TRIPOS>SUBSTRUCTURE
     1 UNK         1 GROUP             0       ****    0 ROOT    
