@<TRIPOS>MOLECULE
3R135
127   129    1
SMALL
USER_CHARGES


@<TRIPOS>ATOM
      1 CA        -74.8922   23.6479  -71.9256 C.3       0 UNK        -0.1998 
      2 C         -76.2393   23.9842  -71.3067 C.2       0 UNK         0.4909 
      3 O         -76.7198   23.2512  -70.4408 O.2       0 UNK        -0.5240 
      4 N         -76.8523   25.0928  -71.7402 N.am      1 UNK        -0.4739 
      5 CA        -78.1682   25.5470  -71.2872 C.3       1 UNK         0.0864 
      6 C6        -78.3776   27.0607  -71.5312 C.3       11 UNK        -0.0881 
      7 S7        -77.1596   28.1065  -70.6601 S.3       11 UNK        -0.2682 
      8 C8        -78.0496   29.6952  -70.5669 C.3       11 UNK         0.0289 
      9 C9        -78.3597   30.2422  -71.9524 C.ar      11 UNK        -0.0687 
     10 C10       -79.5814   29.9483  -72.5627 C.ar      11 UNK        -0.0823 
     11 C11       -79.8468   30.3762  -73.8643 C.ar      11 UNK        -0.0830 
     12 C12       -78.8921   31.1377  -74.5455 C.ar      11 UNK        -0.1021 
     13 C13       -77.6652   31.4441  -73.9460 C.ar      11 UNK        -0.0753 
     14 C14       -77.4134   31.0068  -72.6401 C.ar      11 UNK        -0.0933 
     15 C15       -76.6161   32.2232  -74.7373 C.3       11 UNK         0.0166 
     16 S16       -74.9127   31.5723  -74.5867 S.3       11 UNK        -0.2615 
     17 C17       -75.1204   29.7934  -74.9509 C.3       11 UNK        -0.0865 
     18 CA        -74.5397   28.8984  -73.8227 C.3       10 UNK         0.0862 
     19 C         -75.0321   27.4251  -73.9397 C.2       10 UNK         0.5551 
     20 N         -74.1815   26.4169  -73.7856 N.am      10 UNK        -0.7319 
     21 O         -76.2140   27.1796  -74.1646 O.2       10 UNK        -0.5018 
     22 N         -73.0751   28.9865  -73.8151 N.am      10 UNK        -0.4509 
     23 C         -72.2888   29.3356  -72.7929 C.2       10 UNK         0.4899 
     24 O         -72.7131   29.7153  -71.7005 O.2       10 UNK        -0.4839 
     25 CA        -70.7624   29.2530  -73.0388 C.3       9 UNK         0.0222 
     26 CB        -69.9665   29.0251  -71.7356 C.3       9 UNK        -0.1966 
     27 N         -70.3663   28.2741  -74.0669 N.am      9 UNK        -0.4218 
     28 C         -70.6188   26.9556  -74.0606 C.2       9 UNK         0.5020 
     29 O         -71.2035   26.3801  -73.1400 O.2       9 UNK        -0.5274 
     30 CA        -70.2003   26.1592  -75.3188 C.3       8 UNK         0.0270 
     31 CB        -70.8009   24.7369  -75.3270 C.3       8 UNK        -0.1976 
     32 N         -70.4893   26.8057  -76.6129 N.am      8 UNK        -0.4313 
     33 C         -71.6329   27.3962  -76.9956 C.2       8 UNK         0.5041 
     34 O         -72.5354   27.6938  -76.2148 O.2       8 UNK        -0.5577 
     35 CA        -71.7791   27.7459  -78.4928 C.3       7 UNK         0.0284 
     36 CB        -71.3961   26.5652  -79.4129 C.3       7 UNK        -0.1958 
     37 N         -73.1250   28.2463  -78.8234 N.am      7 UNK        -0.4454 
     38 C         -74.2920   27.5933  -78.7015 C.2       7 UNK         0.5089 
     39 O         -74.4109   26.4011  -78.4047 O.2       7 UNK        -0.5125 
     40 CA        -75.5552   28.4198  -78.9582 C.3       6 UNK         0.0408 
     41 CB        -76.0736   28.2107  -80.3923 C.3       6 UNK        -0.1791 
     42 N         -76.5678   28.0184  -77.9859 N.am      6 UNK        -0.4762 
     43 C         -77.6129   28.7590  -77.5975 C.2       6 UNK         0.5007 
     44 O         -77.8431   29.8777  -78.0593 O.2       6 UNK        -0.5032 
     45 CA        -78.5290   28.1959  -76.4849 C.3       5 UNK         0.0783 
     46 C46       -80.0242   28.5671  -76.7069 C.3       11 UNK        -0.0857 
     47 S47       -81.0518   28.2895  -75.2260 S.3       11 UNK        -0.2512 
     48 C48       -81.1520   29.9760  -74.5360 C.3       11 UNK         0.0225 
     49 N         -78.2816   26.7779  -76.1843 N.am      5 UNK        -0.4615 
     50 C         -78.6126   25.7203  -76.9368 C.2       4 UNK         0.5053 
     51 O         -79.1995   25.8008  -78.0160 O.2       4 UNK        -0.5105 
     52 CA        -78.2209   24.3306  -76.4135 C.3       4 UNK         0.0263 
     53 CB        -77.0729   24.3363  -75.3872 C.3       4 UNK        -0.1981 
     54 N         -79.3987   23.7151  -75.8081 N.am      4 UNK        -0.4224 
     55 C         -80.0759   22.6803  -76.3241 C.2       3 UNK         0.4895 
     56 O         -79.7599   22.1134  -77.3723 O.2       3 UNK        -0.5091 
     57 CA        -81.3259   22.1985  -75.5548 C.3       3 UNK         0.0250 
     58 CB        -81.6192   20.6987  -75.7778 C.3       3 UNK        -0.1996 
     59 N         -81.3141   22.5169  -74.1202 N.am      3 UNK        -0.4254 
     60 C         -80.4321   22.0997  -73.1992 C.2       2 UNK         0.5004 
     61 O         -79.4769   21.3553  -73.4290 O.2       2 UNK        -0.5226 
     62 CA        -80.6510   22.6303  -71.7719 C.3       2 UNK         0.0269 
     63 CB        -80.7415   21.4753  -70.7598 C.3       2 UNK        -0.1926 
     64 N         -79.5945   23.5548  -71.3536 N.am      2 UNK        -0.4687 
     65 C         -79.2752   24.7070  -71.9587 C.2       1 UNK         0.5165 
     66 O         -79.8056   25.1028  -73.0001 O.2       1 UNK        -0.5079 
     67 H67       -74.4986   22.7206  -71.5097 H         1 UNK         0.0900 
     68 H68       -74.1699   24.4388  -71.7244 H         1 UNK         0.0900 
     69 H69       -74.9859   23.5183  -73.0032 H         1 UNK         0.0900 
     70 H70       -76.4194   25.6768  -72.4447 H         1 UNK         0.2959 
     71 H71       -78.2386   25.3844  -70.2090 H         1 UNK         0.1079 
     72 H72       -78.3349   27.2944  -72.5968 H         1 UNK         0.0837 
     73 H73       -79.3756   27.3459  -71.1946 H         1 UNK         0.0837 
     74 H74       -78.9674   29.5660  -69.9912 H         1 UNK         0.0685 
     75 H75       -77.4397   30.4110  -70.0138 H         1 UNK         0.0685 
     76 H76       -80.3156   29.3514  -72.0396 H         1 UNK         0.1434 
     77 H77       -79.0921   31.4636  -75.5574 H         1 UNK         0.1329 
     78 H78       -76.4648   31.2288  -72.1709 H         1 UNK         0.1335 
     79 H79       -76.6253   33.2613  -74.4034 H         1 UNK         0.0680 
     80 H80       -76.8753   32.2374  -75.7973 H         1 UNK         0.0680 
     81 H81       -76.1780   29.5890  -75.0961 H         1 UNK         0.1032 
     82 H82       -74.6423   29.5665  -75.9056 H         1 UNK         0.1032 
     83 H83       -74.9347   29.2510  -72.8687 H         1 UNK         0.0461 
     84 H84       -74.4982   25.4753  -73.9273 H         1 UNK         0.3453 
     85 H85       -73.2022   26.5947  -73.5953 H         1 UNK         0.3453 
     86 H86       -72.6491   28.6159  -74.6640 H         1 UNK         0.2984 
     87 H87       -70.4743   30.2294  -73.4305 H         1 UNK         0.0554 
     88 H88       -70.1429   29.8303  -71.0214 H         1 UNK         0.0847 
     89 H89       -68.8937   28.9933  -71.9249 H         1 UNK         0.0847 
     90 H90       -70.2494   28.0917  -71.2478 H         1 UNK         0.0847 
     91 H91       -69.9167   28.6572  -74.8872 H         1 UNK         0.3141 
     92 H92       -69.1156   26.0585  -75.2593 H         1 UNK         0.0743 
     93 H93       -71.8906   24.7648  -75.3725 H         1 UNK         0.0784 
     94 H94       -70.4458   24.1600  -76.1808 H         1 UNK         0.0784 
     95 H95       -70.5239   24.1836  -74.4286 H         1 UNK         0.0784 
     96 H96       -69.7777   26.6765  -77.3190 H         1 UNK         0.3213 
     97 H97       -71.0905   28.5689  -78.6900 H         1 UNK         0.0855 
     98 H98       -71.9522   25.6603  -79.1648 H         1 UNK         0.0814 
     99 H99       -70.3354   26.3254  -79.3373 H         1 UNK         0.0814 
    100 H100      -71.5930   26.7995  -80.4592 H         1 UNK         0.0814 
    101 H101      -73.1651   29.2285  -79.0575 H         1 UNK         0.3105 
    102 H102      -75.3198   29.4760  -78.8088 H         1 UNK         0.0547 
    103 H103      -75.3137   28.4818  -81.1262 H         1 UNK         0.0837 
    104 H104      -76.3458   27.1698  -80.5720 H         1 UNK         0.0837 
    105 H105      -76.9509   28.8253  -80.5933 H         1 UNK         0.0837 
    106 H106      -76.4016   27.1190  -77.5513 H         1 UNK         0.3020 
    107 H107      -78.2100   28.7140  -75.5823 H         1 UNK         0.1245 
    108 H108      -80.4492   27.9993  -77.5347 H         1 UNK         0.0781 
    109 H109      -80.1318   29.6138  -76.9948 H         1 UNK         0.0781 
    110 H110      -81.9623   30.0083  -73.8061 H         1 UNK         0.0836 
    111 H111      -81.4235   30.6878  -75.3171 H         1 UNK         0.0836 
    112 H112      -77.7527   26.6224  -75.3310 H         1 UNK         0.3022 
    113 H113      -77.8811   23.7558  -77.2776 H         1 UNK         0.0747 
    114 H114      -76.7668   23.3189  -75.1432 H         1 UNK         0.0793 
    115 H115      -76.1946   24.8522  -75.7782 H         1 UNK         0.0793 
    116 H116      -77.3650   24.8185  -74.4559 H         1 UNK         0.0793 
    117 H117      -79.7367   24.1440  -74.9529 H         1 UNK         0.3047 
    118 H118      -82.1611   22.7588  -75.9776 H         1 UNK         0.0822 
    119 H119      -82.5156   20.3851  -75.2428 H         1 UNK         0.0807 
    120 H120      -80.7922   20.0710  -75.4444 H         1 UNK         0.0807 
    121 H121      -81.7843   20.4828  -76.8342 H         1 UNK         0.0807 
    122 H122      -82.0362   23.1587  -73.8217 H         1 UNK         0.2946 
    123 H123      -81.5963   23.1767  -71.7405 H         1 UNK         0.1144 
    124 H124      -79.8053   20.9187  -70.6977 H         1 UNK         0.0793 
    125 H125      -81.5227   20.7685  -71.0430 H         1 UNK         0.0793 
    126 H126      -80.9821   21.8396  -69.7608 H         1 UNK         0.0793 
    127 H127      -79.0199   23.2612  -70.5737 H         1 UNK         0.2896 
@<TRIPOS>BOND
     1    1    2 1    
     2    1   67 1    
     3    1   68 1    
     4    1   69 1    
     5    2    3 2    
     6    2    4 am   BACKBONE|DICT|INTERRES
     7    4    5 1    
     8    4   70 1    
     9    5    6 1    
    10    5   65 1    
    11    5   71 1    
    12    6    7 1    
    13    6   72 1    
    14    6   73 1    
    15    7    8 1    
    16    8    9 1    
    17    8   74 1    
    18    8   75 1    
    19    9   10 ar   
    20    9   14 ar   
    21   10   11 ar   
    22   10   76 1    
    23   11   12 ar   
    24   11   48 1    
    25   12   13 ar   
    26   12   77 1    
    27   13   14 ar   
    28   13   15 1    
    29   14   78 1    
    30   15   16 1    
    31   15   79 1    
    32   15   80 1    
    33   16   17 1    
    34   17   18 1    
    35   17   81 1    
    36   17   82 1    
    37   18   19 1    
    38   18   22 1    
    39   18   83 1    
    40   19   20 am   BACKBONE|DICT|INTERRES
    41   19   21 2    
    42   20   84 1    
    43   20   85 1    
    44   22   23 am   BACKBONE|DICT|INTERRES
    45   22   86 1    
    46   23   24 2    
    47   23   25 1    
    48   25   26 1    
    49   25   27 1    
    50   25   87 1    
    51   26   88 1    
    52   26   89 1    
    53   26   90 1    
    54   27   28 am   BACKBONE|DICT|INTERRES
    55   27   91 1    
    56   28   29 2    
    57   28   30 1    
    58   30   31 1    
    59   30   32 1    
    60   30   92 1    
    61   31   93 1    
    62   31   94 1    
    63   31   95 1    
    64   32   33 am   BACKBONE|DICT|INTERRES
    65   32   96 1    
    66   33   34 2    
    67   33   35 1    
    68   35   36 1    
    69   35   37 1    
    70   35   97 1    
    71   36   98 1    
    72   36   99 1    
    73   36  100 1    
    74   37   38 am   BACKBONE|DICT|INTERRES
    75   37  101 1    
    76   38   39 2    
    77   38   40 1    
    78   40   41 1    
    79   40   42 1    
    80   40  102 1    
    81   41  103 1    
    82   41  104 1    
    83   41  105 1    
    84   42   43 am   BACKBONE|DICT|INTERRES
    85   42  106 1    
    86   43   44 2    
    87   43   45 1    
    88   45   46 1    
    89   45   49 1    
    90   45  107 1    
    91   46   47 1    
    92   46  108 1    
    93   46  109 1    
    94   47   48 1    
    95   48  110 1    
    96   48  111 1    
    97   49   50 am   BACKBONE|DICT|INTERRES
    98   49  112 1    
    99   50   51 2    
   100   50   52 1    
   101   52   53 1    
   102   52   54 1    
   103   52  113 1    
   104   53  114 1    
   105   53  115 1    
   106   53  116 1    
   107   54   55 am   BACKBONE|DICT|INTERRES
   108   54  117 1    
   109   55   56 2    
   110   55   57 1    
   111   57   58 1    
   112   57   59 1    
   113   57  118 1    
   114   58  119 1    
   115   58  120 1    
   116   58  121 1    
   117   59   60 am   BACKBONE|DICT|INTERRES
   118   59  122 1    
   119   60   61 2    
   120   60   62 1    
   121   62   63 1    
   122   62   64 1    
   123   62  123 1    
   124   63  124 1    
   125   63  125 1    
   126   63  126 1    
   127   64   65 am   BACKBONE|DICT|INTERRES
   128   64  127 1    
   129   65   66 2    
@<TRIPOS>SUBSTRUCTURE
     1 UNK         1 GROUP             0       ****    0 ROOT    
