@<TRIPOS>MOLECULE
3R135
127   129    1
SMALL
USER_CHARGES


@<TRIPOS>ATOM
      1 CA        -80.4664   31.2670  -74.6410 C.3       0 UNK        -0.1998 
      2 C         -79.5727   30.0547  -74.4319 C.2       0 UNK         0.4909 
      3 O         -78.3671   30.1394  -74.6563 O.2       0 UNK        -0.5240 
      4 N         -80.1562   28.9251  -74.0125 N.am      1 UNK        -0.4739 
      5 CA        -79.4436   27.6712  -73.7218 C.3       1 UNK         0.0864 
      6 C6        -80.1201   26.8631  -72.5795 C.3       11 UNK        -0.0881 
      7 S7        -80.4063   27.8530  -71.0667 S.3       11 UNK        -0.2682 
      8 C8        -78.9794   27.4182  -70.0124 C.3       11 UNK         0.0289 
      9 C9        -77.6440   27.7061  -70.6866 C.ar      11 UNK        -0.0687 
     10 C10       -76.7118   26.6795  -70.8636 C.ar      11 UNK        -0.0823 
     11 C11       -75.5208   26.9048  -71.5668 C.ar      11 UNK        -0.0830 
     12 C12       -75.2603   28.1861  -72.0630 C.ar      11 UNK        -0.1021 
     13 C13       -76.1668   29.2306  -71.8586 C.ar      11 UNK        -0.0753 
     14 C14       -77.3503   28.9887  -71.1584 C.ar      11 UNK        -0.0933 
     15 C15       -75.8803   30.6128  -72.4181 C.3       11 UNK         0.0166 
     16 S16       -74.8303   31.5686  -71.2842 S.3       11 UNK        -0.2615 
     17 C17       -74.3852   32.9892  -72.3447 C.3       11 UNK        -0.0865 
     18 CA        -72.9464   32.9009  -72.9205 C.3       10 UNK         0.0862 
     19 C         -71.8603   33.1829  -71.8386 C.2       10 UNK         0.5551 
     20 N         -70.9661   32.2508  -71.5313 N.am      10 UNK        -0.7319 
     21 O         -71.8231   34.2761  -71.2787 O.2       10 UNK        -0.5018 
     22 N         -72.7597   31.6664  -73.7001 N.am      10 UNK        -0.4509 
     23 C         -71.8137   31.4685  -74.6248 C.2       10 UNK         0.4899 
     24 O         -70.9829   32.3158  -74.9531 O.2       10 UNK        -0.4839 
     25 CA        -71.7860   30.0865  -75.3001 C.3       9 UNK         0.0222 
     26 CB        -70.8778   29.1244  -74.5174 C.3       9 UNK        -0.1966 
     27 N         -73.1037   29.4660  -75.4739 N.am      9 UNK        -0.4218 
     28 C         -74.0899   29.9295  -76.2542 C.2       9 UNK         0.5020 
     29 O         -74.0397   31.0019  -76.8589 O.2       9 UNK        -0.5274 
     30 CA        -75.3015   28.9920  -76.4363 C.3       8 UNK         0.0270 
     31 CB        -76.4281   29.6297  -77.2703 C.3       8 UNK        -0.1976 
     32 N         -74.8879   27.7408  -77.0792 N.am      8 UNK        -0.4313 
     33 C         -74.2786   26.7277  -76.4544 C.2       8 UNK         0.5041 
     34 O         -74.0596   26.7065  -75.2399 O.2       8 UNK        -0.5577 
     35 CA        -73.7586   25.5881  -77.3327 C.3       7 UNK         0.0284 
     36 CB        -72.3442   25.9139  -77.8511 C.3       7 UNK        -0.1958 
     37 N         -73.7418   24.3778  -76.5213 N.am      7 UNK        -0.4454 
     38 C         -73.6408   23.1233  -76.9734 C.2       7 UNK         0.5089 
     39 O         -73.4649   22.8288  -78.1562 O.2       7 UNK        -0.5125 
     40 CA        -73.7896   22.0008  -75.9288 C.3       6 UNK         0.0408 
     41 CB        -72.4258   21.6595  -75.3078 C.3       6 UNK        -0.1791 
     42 N         -74.7462   22.3195  -74.8621 N.am      6 UNK        -0.4762 
     43 C         -76.0564   22.5342  -75.0497 C.2       6 UNK         0.5007 
     44 O         -76.6067   22.4592  -76.1523 O.2       6 UNK        -0.5032 
     45 CA        -76.8675   22.9219  -73.7978 C.3       5 UNK         0.0783 
     46 C46       -76.4114   24.2866  -73.2192 C.3       11 UNK        -0.0857 
     47 S47       -75.1622   24.1029  -71.9059 S.3       11 UNK        -0.2512 
     48 C48       -74.4884   25.7989  -71.8014 C.3       11 UNK         0.0225 
     49 N         -78.2938   22.9503  -74.1190 N.am      5 UNK        -0.4615 
     50 C         -79.1463   21.9345  -73.9456 C.2       4 UNK         0.5053 
     51 O         -78.8480   20.8676  -73.4075 O.2       4 UNK        -0.5105 
     52 CA        -80.5751   22.1435  -74.4727 C.3       4 UNK         0.0263 
     53 CB        -81.3787   23.0527  -73.5290 C.3       4 UNK        -0.1981 
     54 N         -80.5853   22.7106  -75.8216 N.am      4 UNK        -0.4224 
     55 C         -80.2034   22.0695  -76.9335 C.2       3 UNK         0.4895 
     56 O         -79.8826   20.8806  -76.9565 O.2       3 UNK        -0.5091 
     57 CA        -80.1652   22.8740  -78.2490 C.3       3 UNK         0.0250 
     58 CB        -81.5176   22.7980  -78.9854 C.3       3 UNK        -0.1996 
     59 N         -79.6959   24.2638  -78.1160 N.am      3 UNK        -0.4254 
     60 C         -80.2819   25.2891  -77.4820 C.2       2 UNK         0.5004 
     61 O         -81.3764   25.2199  -76.9171 O.2       2 UNK        -0.5226 
     62 CA        -79.4975   26.6121  -77.4533 C.3       2 UNK         0.0269 
     63 CB        -79.9813   27.5493  -78.5714 C.3       2 UNK        -0.1926 
     64 N         -79.6187   27.2994  -76.1646 N.am      2 UNK        -0.4687 
     65 C         -79.2273   26.8020  -74.9814 C.2       1 UNK         0.5165 
     66 O         -78.7121   25.6900  -74.8632 O.2       1 UNK        -0.5079 
     67 H67       -80.4101   31.6001  -75.6769 H         1 UNK         0.0900 
     68 H68       -80.1394   32.0862  -74.0014 H         1 UNK         0.0900 
     69 H69       -81.5090   31.0507  -74.4090 H         1 UNK         0.0900 
     70 H70       -81.1506   28.9117  -73.8340 H         1 UNK         0.2959 
     71 H71       -78.4354   27.9209  -73.3900 H         1 UNK         0.1079 
     72 H72       -81.0870   26.4812  -72.9116 H         1 UNK         0.0837 
     73 H73       -79.5226   25.9873  -72.3186 H         1 UNK         0.0837 
     74 H74       -79.0383   27.9888  -69.0848 H         1 UNK         0.0685 
     75 H75       -79.0582   26.3662  -69.7339 H         1 UNK         0.0685 
     76 H76       -76.9298   25.6955  -70.4733 H         1 UNK         0.1434 
     77 H77       -74.3461   28.3726  -72.6095 H         1 UNK         0.1329 
     78 H78       -78.0645   29.7883  -71.0168 H         1 UNK         0.1335 
     79 H79       -76.8113   31.1560  -72.5881 H         1 UNK         0.0680 
     80 H80       -75.3996   30.5202  -73.3923 H         1 UNK         0.0680 
     81 H81       -74.5133   33.9069  -71.7672 H         1 UNK         0.1032 
     82 H82       -75.1015   33.0681  -73.1641 H         1 UNK         0.1032 
     83 H83       -72.8508   33.7260  -73.6291 H         1 UNK         0.0461 
     84 H84       -70.2657   32.4475  -70.8339 H         1 UNK         0.3453 
     85 H85       -70.9913   31.3528  -71.9852 H         1 UNK         0.3453 
     86 H86       -73.3776   30.9042  -73.4695 H         1 UNK         0.2984 
     87 H87       -71.3570   30.2210  -76.2952 H         1 UNK         0.0554 
     88 H88       -70.7604   28.1753  -75.0412 H         1 UNK         0.0847 
     89 H89       -71.2735   28.9110  -73.5236 H         1 UNK         0.0847 
     90 H90       -69.8797   29.5457  -74.3884 H         1 UNK         0.0847 
     91 H91       -73.2355   28.5383  -75.0797 H         1 UNK         0.3141 
     92 H92       -75.7048   28.7743  -75.4441 H         1 UNK         0.0743 
     93 H93       -76.1126   29.8380  -78.2932 H         1 UNK         0.0784 
     94 H94       -77.3024   28.9806  -77.3098 H         1 UNK         0.0784 
     95 H95       -76.7515   30.5737  -76.8296 H         1 UNK         0.0784 
     96 H96       -74.9803   27.7055  -78.0846 H         1 UNK         0.3213 
     97 H97       -74.4415   25.4426  -78.1725 H         1 UNK         0.0855 
     98 H98       -72.3407   26.8381  -78.4304 H         1 UNK         0.0814 
     99 H99       -71.9632   25.1270  -78.5020 H         1 UNK         0.0814 
    100 H100      -71.6363   26.0409  -77.0309 H         1 UNK         0.0814 
    101 H101      -73.8948   24.5461  -75.5342 H         1 UNK         0.3105 
    102 H102      -74.1578   21.1141  -76.4491 H         1 UNK         0.0547 
    103 H103      -71.7010   21.3979  -76.0801 H         1 UNK         0.0837 
    104 H104      -72.0141   22.4995  -74.7469 H         1 UNK         0.0837 
    105 H105      -72.4980   20.8066  -74.6329 H         1 UNK         0.0837 
    106 H106      -74.3701   22.4184  -73.9286 H         1 UNK         0.3020 
    107 H107      -76.7011   22.1422  -73.0506 H         1 UNK         0.1245 
    108 H108      -77.2617   24.7953  -72.7646 H         1 UNK         0.0781 
    109 H109      -76.0500   24.9676  -73.9936 H         1 UNK         0.0781 
    110 H110      -73.9324   25.9965  -72.7185 H         1 UNK         0.0836 
    111 H111      -73.7596   25.8312  -70.9908 H         1 UNK         0.0836 
    112 H112      -78.6107   23.7979  -74.5816 H         1 UNK         0.3022 
    113 H113      -81.0661   21.1687  -74.5092 H         1 UNK         0.0747 
    114 H114      -82.4157   23.1421  -73.8530 H         1 UNK         0.0793 
    115 H115      -81.3889   22.6517  -72.5145 H         1 UNK         0.0793 
    116 H116      -80.9559   24.0563  -73.4801 H         1 UNK         0.0793 
    117 H117      -80.8750   23.6797  -75.9231 H         1 UNK         0.3047 
    118 H118      -79.4251   22.3817  -78.8822 H         1 UNK         0.0822 
    119 H119      -81.4743   23.3069  -79.9483 H         1 UNK         0.0807 
    120 H120      -82.3263   23.2439  -78.4058 H         1 UNK         0.0807 
    121 H121      -81.7951   21.7611  -79.1792 H         1 UNK         0.0807 
    122 H122      -78.7836   24.4290  -78.5188 H         1 UNK         0.2946 
    123 H123      -78.4378   26.3966  -77.6078 H         1 UNK         0.1144 
    124 H124      -79.4063   28.4751  -78.5946 H         1 UNK         0.0793 
    125 H125      -81.0335   27.8105  -78.4494 H         1 UNK         0.0793 
    126 H126      -79.8744   27.0789  -79.5498 H         1 UNK         0.0793 
    127 H127      -80.0571   28.2081  -76.1686 H         1 UNK         0.2896 
@<TRIPOS>BOND
     1    1    2 1    
     2    1   67 1    
     3    1   68 1    
     4    1   69 1    
     5    2    3 2    
     6    2    4 am   BACKBONE|DICT|INTERRES
     7    4    5 1    
     8    4   70 1    
     9    5    6 1    
    10    5   65 1    
    11    5   71 1    
    12    6    7 1    
    13    6   72 1    
    14    6   73 1    
    15    7    8 1    
    16    8    9 1    
    17    8   74 1    
    18    8   75 1    
    19    9   10 ar   
    20    9   14 ar   
    21   10   11 ar   
    22   10   76 1    
    23   11   12 ar   
    24   11   48 1    
    25   12   13 ar   
    26   12   77 1    
    27   13   14 ar   
    28   13   15 1    
    29   14   78 1    
    30   15   16 1    
    31   15   79 1    
    32   15   80 1    
    33   16   17 1    
    34   17   18 1    
    35   17   81 1    
    36   17   82 1    
    37   18   19 1    
    38   18   22 1    
    39   18   83 1    
    40   19   20 am   BACKBONE|DICT|INTERRES
    41   19   21 2    
    42   20   84 1    
    43   20   85 1    
    44   22   23 am   BACKBONE|DICT|INTERRES
    45   22   86 1    
    46   23   24 2    
    47   23   25 1    
    48   25   26 1    
    49   25   27 1    
    50   25   87 1    
    51   26   88 1    
    52   26   89 1    
    53   26   90 1    
    54   27   28 am   BACKBONE|DICT|INTERRES
    55   27   91 1    
    56   28   29 2    
    57   28   30 1    
    58   30   31 1    
    59   30   32 1    
    60   30   92 1    
    61   31   93 1    
    62   31   94 1    
    63   31   95 1    
    64   32   33 am   BACKBONE|DICT|INTERRES
    65   32   96 1    
    66   33   34 2    
    67   33   35 1    
    68   35   36 1    
    69   35   37 1    
    70   35   97 1    
    71   36   98 1    
    72   36   99 1    
    73   36  100 1    
    74   37   38 am   BACKBONE|DICT|INTERRES
    75   37  101 1    
    76   38   39 2    
    77   38   40 1    
    78   40   41 1    
    79   40   42 1    
    80   40  102 1    
    81   41  103 1    
    82   41  104 1    
    83   41  105 1    
    84   42   43 am   BACKBONE|DICT|INTERRES
    85   42  106 1    
    86   43   44 2    
    87   43   45 1    
    88   45   46 1    
    89   45   49 1    
    90   45  107 1    
    91   46   47 1    
    92   46  108 1    
    93   46  109 1    
    94   47   48 1    
    95   48  110 1    
    96   48  111 1    
    97   49   50 am   BACKBONE|DICT|INTERRES
    98   49  112 1    
    99   50   51 2    
   100   50   52 1    
   101   52   53 1    
   102   52   54 1    
   103   52  113 1    
   104   53  114 1    
   105   53  115 1    
   106   53  116 1    
   107   54   55 am   BACKBONE|DICT|INTERRES
   108   54  117 1    
   109   55   56 2    
   110   55   57 1    
   111   57   58 1    
   112   57   59 1    
   113   57  118 1    
   114   58  119 1    
   115   58  120 1    
   116   58  121 1    
   117   59   60 am   BACKBONE|DICT|INTERRES
   118   59  122 1    
   119   60   61 2    
   120   60   62 1    
   121   62   63 1    
   122   62   64 1    
   123   62  123 1    
   124   63  124 1    
   125   63  125 1    
   126   63  126 1    
   127   64   65 am   BACKBONE|DICT|INTERRES
   128   64  127 1    
   129   65   66 2    
@<TRIPOS>SUBSTRUCTURE
     1 UNK         1 GROUP             0       ****    0 ROOT    
