@<TRIPOS>MOLECULE
3R135
127   129    1
SMALL
USER_CHARGES


@<TRIPOS>ATOM
      1 CA        -81.6492   28.0901  -70.5466 C.3       0 UNK        -0.1998 
      2 C         -82.5494   28.0592  -71.7721 C.2       0 UNK         0.4909 
      3 O         -83.7094   27.6595  -71.6694 O.2       0 UNK        -0.5240 
      4 N         -82.0295   28.4931  -72.9276 N.am      1 UNK        -0.4739 
      5 CA        -82.7660   28.5818  -74.1949 C.3       1 UNK         0.0864 
      6 C6        -82.0626   29.5522  -75.1812 C.3       11 UNK        -0.0881 
      7 S7        -80.5707   28.8770  -75.9984 S.3       11 UNK        -0.2682 
      8 C8        -79.2176   29.9617  -75.4338 C.3       11 UNK         0.0289 
      9 C9        -78.4430   29.5165  -74.1889 C.ar      11 UNK        -0.0687 
     10 C10       -78.7004   28.3334  -73.4782 C.ar      11 UNK        -0.0823 
     11 C11       -77.9590   28.0189  -72.3321 C.ar      11 UNK        -0.0830 
     12 C12       -76.9457   28.8822  -71.9081 C.ar      11 UNK        -0.1021 
     13 C13       -76.6269   30.0303  -72.6415 C.ar      11 UNK        -0.0753 
     14 C14       -77.3948   30.3397  -73.7664 C.ar      11 UNK        -0.0933 
     15 C15       -75.4736   30.9736  -72.2858 C.3       11 UNK         0.0166 
     16 S16       -74.4913   30.5743  -70.7958 S.3       11 UNK        -0.2615 
     17 C17       -73.6098   29.0413  -71.2551 C.3       11 UNK        -0.0865 
     18 CA        -72.3180   29.2914  -72.0740 C.3       10 UNK         0.0862 
     19 C         -71.3000   28.1399  -71.8750 C.2       10 UNK         0.5551 
     20 N         -70.1145   28.4328  -71.3569 N.am      10 UNK        -0.7319 
     21 O         -71.5964   26.9789  -72.1509 O.2       10 UNK        -0.5018 
     22 N         -72.6258   29.3976  -73.5020 N.am      10 UNK        -0.4509 
     23 C         -71.9543   30.1479  -74.3797 C.2       10 UNK         0.4899 
     24 O         -71.0937   30.9741  -74.0697 O.2       10 UNK        -0.4839 
     25 CA        -72.2981   29.8899  -75.8579 C.3       9 UNK         0.0222 
     26 CB        -71.5187   30.7954  -76.8352 C.3       9 UNK        -0.1966 
     27 N         -72.1353   28.4726  -76.2053 N.am      9 UNK        -0.4218 
     28 C         -71.0157   27.7320  -76.1353 C.2       9 UNK         0.5020 
     29 O         -69.9112   28.1773  -75.8198 O.2       9 UNK        -0.5274 
     30 CA        -71.1343   26.2300  -76.4634 C.3       8 UNK         0.0270 
     31 CB        -71.0623   25.3921  -75.1772 C.3       8 UNK        -0.1976 
     32 N         -72.3570   25.8767  -77.1871 N.am      8 UNK        -0.4313 
     33 C         -72.6085   26.1852  -78.4659 C.2       8 UNK         0.5041 
     34 O         -71.8048   26.7491  -79.2093 O.2       8 UNK        -0.5577 
     35 CA        -74.0086   25.8324  -78.9905 C.3       7 UNK         0.0284 
     36 CB        -74.0647   24.3693  -79.4599 C.3       7 UNK        -0.1958 
     37 N         -75.0532   26.0690  -77.9907 N.am      7 UNK        -0.4454 
     38 C         -75.4498   27.2779  -77.5675 C.2       7 UNK         0.5089 
     39 O         -74.9758   28.3396  -77.9704 O.2       7 UNK        -0.5125 
     40 CA        -76.5520   27.2951  -76.4986 C.3       6 UNK         0.0408 
     41 CB        -77.9056   26.9442  -77.1335 C.3       6 UNK        -0.1791 
     42 N         -76.2790   26.3572  -75.4119 N.am      6 UNK        -0.4762 
     43 C         -75.2830   26.4763  -74.5193 C.2       6 UNK         0.5007 
     44 O         -74.5129   27.4374  -74.4752 O.2       6 UNK        -0.5032 
     45 CA        -75.0634   25.2873  -73.5552 C.3       5 UNK         0.0783 
     46 C46       -75.7441   25.5119  -72.1800 C.3       11 UNK        -0.0857 
     47 S47       -77.5500   25.2461  -72.2241 S.3       11 UNK        -0.2512 
     48 C48       -78.2623   26.7659  -71.5192 C.3       11 UNK         0.0225 
     49 N         -75.4560   23.9988  -74.1412 N.am      5 UNK        -0.4615 
     50 C         -74.9751   23.4711  -75.2721 C.2       4 UNK         0.5053 
     51 O         -74.0410   23.9624  -75.9054 O.2       4 UNK        -0.5105 
     52 CA        -75.6738   22.2163  -75.8244 C.3       4 UNK         0.0263 
     53 CB        -74.8100   20.9724  -75.5625 C.3       4 UNK        -0.1981 
     54 N         -77.0346   21.9727  -75.3223 N.am      4 UNK        -0.4224 
     55 C         -78.1021   22.7700  -75.4902 C.2       3 UNK         0.4895 
     56 O         -78.0439   23.8821  -76.0185 O.2       3 UNK        -0.5091 
     57 CA        -79.4507   22.1814  -75.0238 C.3       3 UNK         0.0250 
     58 CB        -79.4067   21.7057  -73.5530 C.3       3 UNK        -0.1996 
     59 N         -80.6133   23.0514  -75.2729 N.am      3 UNK        -0.4254 
     60 C         -80.9604   24.1711  -74.6209 C.2       2 UNK         0.5004 
     61 O         -80.3286   24.6612  -73.6838 O.2       2 UNK        -0.5226 
     62 CA        -82.2759   24.8382  -75.0490 C.3       2 UNK         0.0269 
     63 CB        -83.4939   24.0305  -74.5579 C.3       2 UNK        -0.1926 
     64 N         -82.2963   26.1804  -74.4751 N.am      2 UNK        -0.4687 
     65 C         -83.0705   27.2074  -74.8417 C.2       1 UNK         0.5165 
     66 O         -83.9734   27.1167  -75.6755 O.2       1 UNK        -0.5079 
     67 H67       -82.1434   28.6216  -69.7336 H         1 UNK         0.0900 
     68 H68       -81.4377   27.0755  -70.2097 H         1 UNK         0.0900 
     69 H69       -80.7030   28.5927  -70.7480 H         1 UNK         0.0900 
     70 H70       -81.0754   28.8236  -72.9551 H         1 UNK         0.2959 
     71 H71       -83.7398   29.0188  -73.9611 H         1 UNK         0.1079 
     72 H72       -81.8204   30.4881  -74.6758 H         1 UNK         0.0837 
     73 H73       -82.7623   29.8286  -75.9721 H         1 UNK         0.0837 
     74 H74       -79.6046   30.9697  -75.2793 H         1 UNK         0.0685 
     75 H75       -78.5063   30.0382  -76.2574 H         1 UNK         0.0685 
     76 H76       -79.4673   27.6469  -73.8071 H         1 UNK         0.1434 
     77 H77       -76.3997   28.6377  -71.0094 H         1 UNK         0.1329 
     78 H78       -77.1674   31.2359  -74.3282 H         1 UNK         0.1335 
     79 H79       -74.7995   31.0468  -73.1406 H         1 UNK         0.0680 
     80 H80       -75.8871   31.9738  -72.1420 H         1 UNK         0.0680 
     81 H81       -74.2695   28.3662  -71.7963 H         1 UNK         0.1032 
     82 H82       -73.3807   28.5359  -70.3140 H         1 UNK         0.1032 
     83 H83       -71.8623   30.2209  -71.7255 H         1 UNK         0.0461 
     84 H84       -69.8671   29.3834  -71.1281 H         1 UNK         0.3453 
     85 H85       -69.4473   27.6917  -71.2095 H         1 UNK         0.3453 
     86 H86       -73.2866   28.7105  -73.8600 H         1 UNK         0.2984 
     87 H87       -73.3600   30.1135  -75.9753 H         1 UNK         0.0554 
     88 H88       -71.7189   31.8484  -76.6329 H         1 UNK         0.0847 
     89 H89       -71.8083   30.6028  -77.8683 H         1 UNK         0.0847 
     90 H90       -70.4407   30.6498  -76.7562 H         1 UNK         0.0847 
     91 H91       -72.9909   27.9932  -76.4533 H         1 UNK         0.3141 
     92 H92       -70.2806   25.9660  -77.0911 H         1 UNK         0.0743 
     93 H93       -70.1486   25.6043  -74.6199 H         1 UNK         0.0784 
     94 H94       -71.9020   25.6058  -74.5160 H         1 UNK         0.0784 
     95 H95       -71.0707   24.3239  -75.3956 H         1 UNK         0.0784 
     96 H96       -73.0501   25.3307  -76.6770 H         1 UNK         0.3213 
     97 H97       -74.2126   26.4752  -79.8499 H         1 UNK         0.0855 
     98 H98       -73.8764   23.6715  -78.6430 H         1 UNK         0.0814 
     99 H99       -73.3139   24.1795  -80.2282 H         1 UNK         0.0814 
    100 H100      -75.0361   24.1274  -79.8915 H         1 UNK         0.0814 
    101 H101      -75.4715   25.2545  -77.5646 H         1 UNK         0.3105 
    102 H102      -76.6098   28.2980  -76.0722 H         1 UNK         0.0547 
    103 H103      -77.8620   26.0237  -77.7167 H         1 UNK         0.0837 
    104 H104      -78.2404   27.7381  -77.8018 H         1 UNK         0.0837 
    105 H105      -78.6722   26.8029  -76.3726 H         1 UNK         0.0837 
    106 H106      -76.8655   25.5295  -75.3733 H         1 UNK         0.3020 
    107 H107      -73.9862   25.2399  -73.3818 H         1 UNK         0.1245 
    108 H108      -75.5151   26.4971  -71.7799 H         1 UNK         0.0781 
    109 H109      -75.3315   24.8065  -71.4573 H         1 UNK         0.0781 
    110 H110      -77.9184   26.8785  -70.4898 H         1 UNK         0.0836 
    111 H111      -79.3416   26.6266  -71.4634 H         1 UNK         0.0836 
    112 H112      -76.2452   23.5479  -73.7013 H         1 UNK         0.3022 
    113 H113      -75.7505   22.3532  -76.9051 H         1 UNK         0.0747 
    114 H114      -75.2246   20.0895  -76.0495 H         1 UNK         0.0793 
    115 H115      -73.7998   21.1081  -75.9522 H         1 UNK         0.0793 
    116 H116      -74.7215   20.7599  -74.4963 H         1 UNK         0.0793 
    117 H117      -77.1807   21.0793  -74.8748 H         1 UNK         0.3047 
    118 H118      -79.6204   21.3002  -75.6446 H         1 UNK         0.0822 
    119 H119      -80.3835   21.3529  -73.2218 H         1 UNK         0.0807 
    120 H120      -79.0943   22.5022  -72.8767 H         1 UNK         0.0807 
    121 H121      -78.7102   20.8780  -73.4187 H         1 UNK         0.0807 
    122 H122      -81.1994   22.7595  -76.0426 H         1 UNK         0.2946 
    123 H123      -82.2901   24.9180  -76.1383 H         1 UNK         0.1144 
    124 H124      -84.4319   24.4915  -74.8673 H         1 UNK         0.0793 
    125 H125      -83.5056   23.9476  -73.4703 H         1 UNK         0.0793 
    126 H126      -83.4865   23.0180  -74.9630 H         1 UNK         0.0793 
    127 H127      -81.5610   26.3335  -73.7951 H         1 UNK         0.2896 
@<TRIPOS>BOND
     1    1    2 1    
     2    1   67 1    
     3    1   68 1    
     4    1   69 1    
     5    2    3 2    
     6    2    4 am   BACKBONE|DICT|INTERRES
     7    4    5 1    
     8    4   70 1    
     9    5    6 1    
    10    5   65 1    
    11    5   71 1    
    12    6    7 1    
    13    6   72 1    
    14    6   73 1    
    15    7    8 1    
    16    8    9 1    
    17    8   74 1    
    18    8   75 1    
    19    9   10 ar   
    20    9   14 ar   
    21   10   11 ar   
    22   10   76 1    
    23   11   12 ar   
    24   11   48 1    
    25   12   13 ar   
    26   12   77 1    
    27   13   14 ar   
    28   13   15 1    
    29   14   78 1    
    30   15   16 1    
    31   15   79 1    
    32   15   80 1    
    33   16   17 1    
    34   17   18 1    
    35   17   81 1    
    36   17   82 1    
    37   18   19 1    
    38   18   22 1    
    39   18   83 1    
    40   19   20 am   BACKBONE|DICT|INTERRES
    41   19   21 2    
    42   20   84 1    
    43   20   85 1    
    44   22   23 am   BACKBONE|DICT|INTERRES
    45   22   86 1    
    46   23   24 2    
    47   23   25 1    
    48   25   26 1    
    49   25   27 1    
    50   25   87 1    
    51   26   88 1    
    52   26   89 1    
    53   26   90 1    
    54   27   28 am   BACKBONE|DICT|INTERRES
    55   27   91 1    
    56   28   29 2    
    57   28   30 1    
    58   30   31 1    
    59   30   32 1    
    60   30   92 1    
    61   31   93 1    
    62   31   94 1    
    63   31   95 1    
    64   32   33 am   BACKBONE|DICT|INTERRES
    65   32   96 1    
    66   33   34 2    
    67   33   35 1    
    68   35   36 1    
    69   35   37 1    
    70   35   97 1    
    71   36   98 1    
    72   36   99 1    
    73   36  100 1    
    74   37   38 am   BACKBONE|DICT|INTERRES
    75   37  101 1    
    76   38   39 2    
    77   38   40 1    
    78   40   41 1    
    79   40   42 1    
    80   40  102 1    
    81   41  103 1    
    82   41  104 1    
    83   41  105 1    
    84   42   43 am   BACKBONE|DICT|INTERRES
    85   42  106 1    
    86   43   44 2    
    87   43   45 1    
    88   45   46 1    
    89   45   49 1    
    90   45  107 1    
    91   46   47 1    
    92   46  108 1    
    93   46  109 1    
    94   47   48 1    
    95   48  110 1    
    96   48  111 1    
    97   49   50 am   BACKBONE|DICT|INTERRES
    98   49  112 1    
    99   50   51 2    
   100   50   52 1    
   101   52   53 1    
   102   52   54 1    
   103   52  113 1    
   104   53  114 1    
   105   53  115 1    
   106   53  116 1    
   107   54   55 am   BACKBONE|DICT|INTERRES
   108   54  117 1    
   109   55   56 2    
   110   55   57 1    
   111   57   58 1    
   112   57   59 1    
   113   57  118 1    
   114   58  119 1    
   115   58  120 1    
   116   58  121 1    
   117   59   60 am   BACKBONE|DICT|INTERRES
   118   59  122 1    
   119   60   61 2    
   120   60   62 1    
   121   62   63 1    
   122   62   64 1    
   123   62  123 1    
   124   63  124 1    
   125   63  125 1    
   126   63  126 1    
   127   64   65 am   BACKBONE|DICT|INTERRES
   128   64  127 1    
   129   65   66 2    
@<TRIPOS>SUBSTRUCTURE
     1 UNK         1 GROUP             0       ****    0 ROOT    
