@<TRIPOS>MOLECULE
3R135
127   129    1
SMALL
USER_CHARGES


@<TRIPOS>ATOM
      1 CA        -82.1743   27.4411  -69.8556 C.3       0 UNK        -0.1998 
      2 C         -82.9647   27.2892  -71.1466 C.2       0 UNK         0.4909 
      3 O         -84.0545   26.7164  -71.1354 O.2       0 UNK        -0.5240 
      4 N         -82.4222   27.7964  -72.2612 N.am      1 UNK        -0.4739 
      5 CA        -83.0221   27.7209  -73.6003 C.3       1 UNK         0.0864 
      6 C6        -82.4820   28.8422  -74.5280 C.3       11 UNK        -0.0881 
      7 S7        -80.6907   28.7258  -74.8672 S.3       11 UNK        -0.2682 
      8 C8        -79.9913   29.9621  -73.7325 C.3       11 UNK         0.0289 
      9 C9        -78.6006   29.5334  -73.2959 C.ar      11 UNK        -0.0687 
     10 C10       -78.4494   28.6674  -72.2098 C.ar      11 UNK        -0.0823 
     11 C11       -77.1822   28.2253  -71.8230 C.ar      11 UNK        -0.0830 
     12 C12       -76.0579   28.6677  -72.5262 C.ar      11 UNK        -0.1021 
     13 C13       -76.1952   29.5310  -73.6177 C.ar      11 UNK        -0.0753 
     14 C14       -77.4696   29.9681  -73.9930 C.ar      11 UNK        -0.0933 
     15 C15       -74.9775   29.9421  -74.4323 C.3       11 UNK         0.0166 
     16 S16       -74.2574   31.5098  -73.8508 S.3       11 UNK        -0.2615 
     17 C17       -73.2227   30.9462  -72.4555 C.3       11 UNK        -0.0865 
     18 CA        -71.7033   31.1674  -72.6836 C.3       10 UNK         0.0862 
     19 C         -70.9090   30.7574  -71.4071 C.2       10 UNK         0.5551 
     20 N         -70.1031   29.7027  -71.4329 N.am      10 UNK        -0.7319 
     21 O         -71.0310   31.4114  -70.3743 O.2       10 UNK        -0.5018 
     22 N         -71.2359   30.5542  -73.9411 N.am      10 UNK        -0.4509 
     23 C         -70.0460   30.7687  -74.5176 C.2       10 UNK         0.4899 
     24 O         -69.1980   31.5344  -74.0564 O.2       10 UNK        -0.4839 
     25 CA        -69.7495   29.9892  -75.8179 C.3       9 UNK         0.0222 
     26 CB        -68.2713   30.0874  -76.2416 C.3       9 UNK        -0.1966 
     27 N         -70.1216   28.5725  -75.7199 N.am      9 UNK        -0.4218 
     28 C         -71.3574   28.0898  -75.8957 C.2       9 UNK         0.5020 
     29 O         -72.3301   28.8013  -76.1515 O.2       9 UNK        -0.5274 
     30 CA        -71.5423   26.5819  -75.6681 C.3       8 UNK         0.0270 
     31 CB        -71.7216   26.2910  -74.1680 C.3       8 UNK        -0.1976 
     32 N         -72.7053   26.0766  -76.4014 N.am      8 UNK        -0.4313 
     33 C         -72.6983   25.7853  -77.7110 C.2       8 UNK         0.5041 
     34 O         -71.6865   25.8528  -78.4118 O.2       8 UNK        -0.5577 
     35 CA        -74.0144   25.3174  -78.3659 C.3       7 UNK         0.0284 
     36 CB        -74.0044   23.7917  -78.5573 C.3       7 UNK        -0.1958 
     37 N         -75.2183   25.6868  -77.6234 N.am      7 UNK        -0.4454 
     38 C         -75.6890   26.9315  -77.4726 C.2       7 UNK         0.5089 
     39 O         -75.2127   27.9181  -78.0334 O.2       7 UNK        -0.5125 
     40 CA        -76.8970   27.1056  -76.5322 C.3       6 UNK         0.0408 
     41 CB        -78.1906   27.1624  -77.3577 C.3       6 UNK        -0.1791 
     42 N         -77.0249   26.0674  -75.4997 N.am      6 UNK        -0.4762 
     43 C         -76.0906   25.7468  -74.5890 C.2       6 UNK         0.5007 
     44 O         -74.9792   26.2720  -74.5390 O.2       6 UNK        -0.5032 
     45 CA        -76.4164   24.5838  -73.6344 C.3       5 UNK         0.0783 
     46 C46       -77.2603   25.0259  -72.4120 C.3       11 UNK        -0.0857 
     47 S47       -76.2012   25.7082  -71.0896 S.3       11 UNK        -0.2512 
     48 C48       -77.0392   27.2660  -70.6483 C.3       11 UNK         0.0225 
     49 N         -77.0456   23.4888  -74.3745 N.am      5 UNK        -0.4615 
     50 C         -76.3639   22.5603  -75.0607 C.2       4 UNK         0.5053 
     51 O         -75.1356   22.4856  -75.0751 O.2       4 UNK        -0.5105 
     52 CA        -77.1813   21.5460  -75.8802 C.3       4 UNK         0.0263 
     53 CB        -77.4690   20.2885  -75.0445 C.3       4 UNK        -0.1981 
     54 N         -78.4430   22.0922  -76.3833 N.am      4 UNK        -0.4224 
     55 C         -78.5405   23.0621  -77.3037 C.2       3 UNK         0.4895 
     56 O         -77.5736   23.5677  -77.8734 O.2       3 UNK        -0.5091 
     57 CA        -79.9570   23.5821  -77.6084 C.3       3 UNK         0.0250 
     58 CB        -80.5899   22.7742  -78.7525 C.3       3 UNK        -0.1996 
     59 N         -80.8604   23.5821  -76.4498 N.am      3 UNK        -0.4254 
     60 C         -80.6450   24.2492  -75.3072 C.2       2 UNK         0.5004 
     61 O         -79.6194   24.8912  -75.0677 O.2       2 UNK        -0.5226 
     62 CA        -81.7216   24.1316  -74.2217 C.3       2 UNK         0.0269 
     63 CB        -81.2268   23.2335  -73.0756 C.3       2 UNK        -0.1926 
     64 N         -82.0348   25.4558  -73.6900 N.am      2 UNK        -0.4687 
     65 C         -82.8987   26.3185  -74.2448 C.2       1 UNK         0.5165 
     66 O         -83.5896   26.0446  -75.2280 O.2       1 UNK        -0.5079 
     67 H67       -81.2698   28.0323  -69.9958 H         1 UNK         0.0900 
     68 H68       -81.8855   26.4616  -69.4754 H         1 UNK         0.0900 
     69 H69       -82.7843   27.9337  -69.0988 H         1 UNK         0.0900 
     70 H70       -81.5249   28.2543  -72.2197 H         1 UNK         0.2959 
     71 H71       -84.0947   27.8953  -73.4859 H         1 UNK         0.1079 
     72 H72       -83.0066   28.8196  -75.4851 H         1 UNK         0.0837 
     73 H73       -82.7087   29.8204  -74.1011 H         1 UNK         0.0837 
     74 H74       -79.9592   30.9327  -74.2297 H         1 UNK         0.0685 
     75 H75       -80.6302   30.0845  -72.8571 H         1 UNK         0.0685 
     76 H76       -79.3222   28.3226  -71.6751 H         1 UNK         0.1434 
     77 H77       -75.0798   28.3039  -72.2449 H         1 UNK         0.1329 
     78 H78       -77.5829   30.6236  -74.8455 H         1 UNK         0.1335 
     79 H79       -74.2280   29.1505  -74.4064 H         1 UNK         0.0680 
     80 H80       -75.2559   30.0529  -75.4814 H         1 UNK         0.0680 
     81 H81       -73.4168   29.8937  -72.2483 H         1 UNK         0.1032 
     82 H82       -73.5554   31.4882  -71.5679 H         1 UNK         0.1032 
     83 H83       -71.5481   32.2425  -72.7936 H         1 UNK         0.0461 
     84 H84       -69.9895   29.1693  -72.2787 H         1 UNK         0.3453 
     85 H85       -69.5932   29.4495  -70.6013 H         1 UNK         0.3453 
     86 H86       -71.8915   29.9511  -74.4235 H         1 UNK         0.2984 
     87 H87       -70.3450   30.4554  -76.6057 H         1 UNK         0.0554 
     88 H88       -68.0906   29.5610  -77.1791 H         1 UNK         0.0847 
     89 H89       -67.6050   29.6683  -75.4865 H         1 UNK         0.0847 
     90 H90       -67.9756   31.1259  -76.3970 H         1 UNK         0.0847 
     91 H91       -69.3826   27.9312  -75.4679 H         1 UNK         0.3141 
     92 H92       -70.6503   26.0581  -76.0190 H         1 UNK         0.0743 
     93 H93       -72.5422   26.8675  -73.7388 H         1 UNK         0.0784 
     94 H94       -71.9256   25.2352  -73.9885 H         1 UNK         0.0784 
     95 H95       -70.8211   26.5463  -73.6083 H         1 UNK         0.0784 
     96 H96       -73.5870   26.0751  -75.8947 H         1 UNK         0.3213 
     97 H97       -74.0717   25.7869  -79.3502 H         1 UNK         0.0855 
     98 H98       -73.9610   23.2668  -77.6019 H         1 UNK         0.0814 
     99 H99       -73.1400   23.4762  -79.1432 H         1 UNK         0.0814 
    100 H100      -74.8954   23.4516  -79.0858 H         1 UNK         0.0814 
    101 H101      -75.7301   24.9368  -77.1771 H         1 UNK         0.3105 
    102 H102      -76.7794   28.0573  -76.0147 H         1 UNK         0.0547 
    103 H103      -78.2089   28.0528  -77.9871 H         1 UNK         0.0837 
    104 H104      -78.2807   26.2993  -78.0164 H         1 UNK         0.0837 
    105 H105      -79.0746   27.1931  -76.7228 H         1 UNK         0.0837 
    106 H106      -77.9278   25.6005  -75.4418 H         1 UNK         0.3020 
    107 H107      -75.4593   24.2132  -73.2581 H         1 UNK         0.1245 
    108 H108      -77.7754   24.1654  -71.9823 H         1 UNK         0.0781 
    109 H109      -78.0466   25.7276  -72.6971 H         1 UNK         0.0781 
    110 H110      -76.4698   27.7591  -69.8594 H         1 UNK         0.0836 
    111 H111      -78.0128   27.0265  -70.2175 H         1 UNK         0.0836 
    112 H112      -78.0513   23.5372  -74.4735 H         1 UNK         0.3022 
    113 H113      -76.5748   21.2549  -76.7408 H         1 UNK         0.0747 
    114 H114      -77.9777   19.5265  -75.6353 H         1 UNK         0.0793 
    115 H115      -76.5425   19.8450  -74.6766 H         1 UNK         0.0793 
    116 H116      -78.0901   20.5124  -74.1761 H         1 UNK         0.0793 
    117 H117      -79.2936   21.7308  -75.9775 H         1 UNK         0.3047 
    118 H118      -79.8611   24.6166  -77.9405 H         1 UNK         0.0822 
    119 H119      -81.5497   23.1952  -79.0530 H         1 UNK         0.0807 
    120 H120      -80.7518   21.7325  -78.4723 H         1 UNK         0.0807 
    121 H121      -79.9475   22.7783  -79.6344 H         1 UNK         0.0807 
    122 H122      -81.7238   23.0688  -76.5571 H         1 UNK         0.2946 
    123 H123      -82.6256   23.6893  -74.6470 H         1 UNK         0.1144 
    124 H124      -81.9846   23.1318  -72.2984 H         1 UNK         0.0793 
    125 H125      -80.3228   23.6292  -72.6105 H         1 UNK         0.0793 
    126 H126      -80.9967   22.2299  -73.4355 H         1 UNK         0.0793 
    127 H127      -81.4714   25.7808  -72.9190 H         1 UNK         0.2896 
@<TRIPOS>BOND
     1    1    2 1    
     2    1   67 1    
     3    1   68 1    
     4    1   69 1    
     5    2    3 2    
     6    2    4 am   BACKBONE|DICT|INTERRES
     7    4    5 1    
     8    4   70 1    
     9    5    6 1    
    10    5   65 1    
    11    5   71 1    
    12    6    7 1    
    13    6   72 1    
    14    6   73 1    
    15    7    8 1    
    16    8    9 1    
    17    8   74 1    
    18    8   75 1    
    19    9   10 ar   
    20    9   14 ar   
    21   10   11 ar   
    22   10   76 1    
    23   11   12 ar   
    24   11   48 1    
    25   12   13 ar   
    26   12   77 1    
    27   13   14 ar   
    28   13   15 1    
    29   14   78 1    
    30   15   16 1    
    31   15   79 1    
    32   15   80 1    
    33   16   17 1    
    34   17   18 1    
    35   17   81 1    
    36   17   82 1    
    37   18   19 1    
    38   18   22 1    
    39   18   83 1    
    40   19   20 am   BACKBONE|DICT|INTERRES
    41   19   21 2    
    42   20   84 1    
    43   20   85 1    
    44   22   23 am   BACKBONE|DICT|INTERRES
    45   22   86 1    
    46   23   24 2    
    47   23   25 1    
    48   25   26 1    
    49   25   27 1    
    50   25   87 1    
    51   26   88 1    
    52   26   89 1    
    53   26   90 1    
    54   27   28 am   BACKBONE|DICT|INTERRES
    55   27   91 1    
    56   28   29 2    
    57   28   30 1    
    58   30   31 1    
    59   30   32 1    
    60   30   92 1    
    61   31   93 1    
    62   31   94 1    
    63   31   95 1    
    64   32   33 am   BACKBONE|DICT|INTERRES
    65   32   96 1    
    66   33   34 2    
    67   33   35 1    
    68   35   36 1    
    69   35   37 1    
    70   35   97 1    
    71   36   98 1    
    72   36   99 1    
    73   36  100 1    
    74   37   38 am   BACKBONE|DICT|INTERRES
    75   37  101 1    
    76   38   39 2    
    77   38   40 1    
    78   40   41 1    
    79   40   42 1    
    80   40  102 1    
    81   41  103 1    
    82   41  104 1    
    83   41  105 1    
    84   42   43 am   BACKBONE|DICT|INTERRES
    85   42  106 1    
    86   43   44 2    
    87   43   45 1    
    88   45   46 1    
    89   45   49 1    
    90   45  107 1    
    91   46   47 1    
    92   46  108 1    
    93   46  109 1    
    94   47   48 1    
    95   48  110 1    
    96   48  111 1    
    97   49   50 am   BACKBONE|DICT|INTERRES
    98   49  112 1    
    99   50   51 2    
   100   50   52 1    
   101   52   53 1    
   102   52   54 1    
   103   52  113 1    
   104   53  114 1    
   105   53  115 1    
   106   53  116 1    
   107   54   55 am   BACKBONE|DICT|INTERRES
   108   54  117 1    
   109   55   56 2    
   110   55   57 1    
   111   57   58 1    
   112   57   59 1    
   113   57  118 1    
   114   58  119 1    
   115   58  120 1    
   116   58  121 1    
   117   59   60 am   BACKBONE|DICT|INTERRES
   118   59  122 1    
   119   60   61 2    
   120   60   62 1    
   121   62   63 1    
   122   62   64 1    
   123   62  123 1    
   124   63  124 1    
   125   63  125 1    
   126   63  126 1    
   127   64   65 am   BACKBONE|DICT|INTERRES
   128   64  127 1    
   129   65   66 2    
@<TRIPOS>SUBSTRUCTURE
     1 UNK         1 GROUP             0       ****    0 ROOT    
