@<TRIPOS>MOLECULE
3R135
127   129    1
SMALL
USER_CHARGES


@<TRIPOS>ATOM
      1 CA        -78.8899   22.8755  -73.0636 C.3       0 UNK        -0.1998 
      2 C         -80.2125   23.2256  -72.4016 C.2       0 UNK         0.4909 
      3 O         -80.9128   22.3334  -71.9238 O.2       0 UNK        -0.5240 
      4 N         -80.5759   24.5150  -72.3907 N.am      1 UNK        -0.4739 
      5 CA        -81.8323   25.0347  -71.8296 C.3       1 UNK         0.0864 
      6 C6        -81.6641   26.4904  -71.3190 C.3       11 UNK        -0.0881 
      7 S7        -81.2578   27.7040  -72.6255 S.3       11 UNK        -0.2682 
      8 C8        -80.2786   28.9373  -71.7106 C.3       11 UNK         0.0289 
      9 C9        -78.7875   28.7459  -71.9413 C.ar      11 UNK        -0.0687 
     10 C10       -78.0974   27.7250  -71.2832 C.ar      11 UNK        -0.0823 
     11 C11       -76.7333   27.5293  -71.5121 C.ar      11 UNK        -0.0830 
     12 C12       -76.0536   28.3741  -72.3952 C.ar      11 UNK        -0.1021 
     13 C13       -76.7333   29.3952  -73.0642 C.ar      11 UNK        -0.0753 
     14 C14       -78.0984   29.5823  -72.8260 C.ar      11 UNK        -0.0933 
     15 C15       -76.0116   30.2593  -74.0877 C.3       11 UNK         0.0166 
     16 S16       -75.3798   31.8127  -73.3819 S.3       11 UNK        -0.2615 
     17 C17       -73.8725   31.2895  -72.4920 C.3       11 UNK        -0.0865 
     18 CA        -72.5950   31.3998  -73.3711 C.3       10 UNK         0.0862 
     19 C         -71.2927   31.4136  -72.5142 C.2       10 UNK         0.5551 
     20 N         -70.2671   30.6296  -72.8265 N.am      10 UNK        -0.7319 
     21 O         -71.2021   32.1666  -71.5476 O.2       10 UNK        -0.5018 
     22 N         -72.5900   30.3775  -74.4298 N.am      10 UNK        -0.4509 
     23 C         -72.1281   30.5469  -75.6741 C.2       10 UNK         0.4899 
     24 O         -71.7122   31.6200  -76.1137 O.2       10 UNK        -0.4839 
     25 CA        -72.1246   29.2866  -76.5661 C.3       9 UNK         0.0222 
     26 CB        -71.2538   29.4468  -77.8295 C.3       9 UNK        -0.1966 
     27 N         -71.7557   28.0610  -75.8425 N.am      9 UNK        -0.4218 
     28 C         -70.6247   27.8330  -75.1542 C.2       9 UNK         0.5020 
     29 O         -69.7281   28.6637  -75.0057 O.2       9 UNK        -0.5274 
     30 CA        -70.4790   26.4558  -74.4922 C.3       8 UNK         0.0270 
     31 CB        -71.1888   26.4442  -73.1279 C.3       8 UNK        -0.1976 
     32 N         -71.0214   25.3921  -75.3399 N.am      8 UNK        -0.4313 
     33 C         -70.3020   24.6744  -76.2142 C.2       8 UNK         0.5041 
     34 O         -69.0857   24.7980  -76.3649 O.2       8 UNK        -0.5577 
     35 CA        -71.0549   23.6307  -77.0620 C.3       7 UNK         0.0284 
     36 CB        -70.9880   22.2482  -76.3926 C.3       7 UNK        -0.1958 
     37 N         -72.4565   23.9811  -77.3048 N.am      7 UNK        -0.4454 
     38 C         -72.8641   24.9683  -78.1143 C.2       7 UNK         0.5089 
     39 O         -72.1038   25.6427  -78.8086 O.2       7 UNK        -0.5125 
     40 CA        -74.3736   25.2782  -78.1325 C.3       6 UNK         0.0408 
     41 CB        -75.0543   24.5595  -79.3078 C.3       6 UNK        -0.1791 
     42 N         -75.0933   24.9616  -76.8900 N.am      6 UNK        -0.4762 
     43 C         -74.8034   25.4565  -75.6784 C.2       6 UNK         0.5007 
     44 O         -73.8284   26.1788  -75.4585 O.2       6 UNK        -0.5032 
     45 CA        -75.7920   25.1453  -74.5381 C.3       5 UNK         0.0783 
     46 C46       -75.0696   25.1266  -73.1638 C.3       11 UNK        -0.0857 
     47 S47       -76.1776   24.8304  -71.7468 S.3       11 UNK        -0.2512 
     48 C48       -76.0069   26.3884  -70.8176 C.3       11 UNK         0.0225 
     49 N         -76.8719   26.1335  -74.6169 N.am      5 UNK        -0.4615 
     50 C         -77.8963   26.0554  -75.4742 C.2       4 UNK         0.5053 
     51 O         -78.1551   25.0511  -76.1428 O.2       4 UNK        -0.5105 
     52 CA        -78.7332   27.3228  -75.6654 C.3       4 UNK         0.0263 
     53 CB        -77.9996   28.2985  -76.6085 C.3       4 UNK        -0.1981 
     54 N         -80.0293   26.9426  -76.2184 N.am      4 UNK        -0.4224 
     55 C         -81.1007   27.7355  -76.3548 C.2       3 UNK         0.4895 
     56 O         -81.1212   28.9331  -76.0715 O.2       3 UNK        -0.5091 
     57 CA        -82.3804   27.0591  -76.8567 C.3       3 UNK         0.0250 
     58 CB        -82.2693   26.6852  -78.3486 C.3       3 UNK        -0.1996 
     59 N         -82.6556   25.8860  -76.0295 N.am      3 UNK        -0.4254 
     60 C         -83.8119   25.2158  -75.9586 C.2       2 UNK         0.5004 
     61 O         -84.8107   25.4909  -76.6243 O.2       2 UNK        -0.5226 
     62 CA        -83.8616   24.0322  -74.9756 C.3       2 UNK         0.0269 
     63 CB        -83.6236   22.7083  -75.7205 C.3       2 UNK        -0.1926 
     64 N         -82.8707   24.1604  -73.9020 N.am      2 UNK        -0.4687 
     65 C         -83.0450   24.8784  -72.7826 C.2       1 UNK         0.5165 
     66 O         -84.1132   25.4231  -72.4982 O.2       1 UNK        -0.5079 
     67 H67       -79.0434   22.1303  -73.8436 H         1 UNK         0.0900 
     68 H68       -78.1993   22.4638  -72.3282 H         1 UNK         0.0900 
     69 H69       -78.4234   23.7476  -73.5183 H         1 UNK         0.0900 
     70 H70       -79.9638   25.2135  -72.7881 H         1 UNK         0.2959 
     71 H71       -82.0808   24.4273  -70.9560 H         1 UNK         0.1079 
     72 H72       -82.5711   26.8256  -70.8123 H         1 UNK         0.0837 
     73 H73       -80.8866   26.5090  -70.5551 H         1 UNK         0.0837 
     74 H74       -80.5043   28.8925  -70.6443 H         1 UNK         0.0685 
     75 H75       -80.5843   29.9313  -72.0406 H         1 UNK         0.0685 
     76 H76       -78.6240   27.0695  -70.6040 H         1 UNK         0.1434 
     77 H77       -74.9993   28.2246  -72.5785 H         1 UNK         0.1329 
     78 H78       -78.6297   30.3657  -73.3493 H         1 UNK         0.1335 
     79 H79       -76.7020   30.5152  -74.8925 H         1 UNK         0.0680 
     80 H80       -75.2038   29.6997  -74.5589 H         1 UNK         0.0680 
     81 H81       -73.7967   31.9432  -71.6210 H         1 UNK         0.1032 
     82 H82       -73.9887   30.2838  -72.0898 H         1 UNK         0.1032 
     83 H83       -72.6186   32.3832  -73.8446 H         1 UNK         0.0461 
     84 H84       -70.2821   30.0348  -73.6472 H         1 UNK         0.3453 
     85 H85       -69.4368   30.6670  -72.2573 H         1 UNK         0.3453 
     86 H86       -72.8726   29.4506  -74.1515 H         1 UNK         0.2984 
     87 H87       -73.1558   29.1448  -76.8931 H         1 UNK         0.0554 
     88 H88       -71.2927   28.5525  -78.4520 H         1 UNK         0.0847 
     89 H89       -70.2094   29.6354  -77.5786 H         1 UNK         0.0847 
     90 H90       -71.5982   30.2815  -78.4412 H         1 UNK         0.0847 
     91 H91       -72.4674   27.3326  -75.8330 H         1 UNK         0.3141 
     92 H92       -69.4154   26.2794  -74.3165 H         1 UNK         0.0743 
     93 H93       -70.7642   27.1978  -72.4630 H         1 UNK         0.0784 
     94 H94       -72.2532   26.6570  -73.2205 H         1 UNK         0.0784 
     95 H95       -71.0813   25.4787  -72.6331 H         1 UNK         0.0784 
     96 H96       -72.0276   25.2739  -75.3261 H         1 UNK         0.3213 
     97 H97       -70.5483   23.5667  -78.0277 H         1 UNK         0.0855 
     98 H98       -71.4895   22.2417  -75.4240 H         1 UNK         0.0814 
     99 H99       -69.9528   21.9471  -76.2247 H         1 UNK         0.0814 
    100 H100      -71.4484   21.4817  -77.0163 H         1 UNK         0.0814 
    101 H101      -73.1577   23.4667  -76.7919 H         1 UNK         0.3105 
    102 H102      -74.4737   26.3539  -78.2922 H         1 UNK         0.0547 
    103 H103      -75.0246   23.4756  -79.1902 H         1 UNK         0.0837 
    104 H104      -76.0978   24.8592  -79.4066 H         1 UNK         0.0837 
    105 H105      -74.5609   24.7984  -80.2511 H         1 UNK         0.0837 
    106 H106      -75.9456   24.4250  -76.9910 H         1 UNK         0.3020 
    107 H107      -76.2022   24.1467  -74.7055 H         1 UNK         0.1245 
    108 H108      -74.5209   26.0517  -72.9953 H         1 UNK         0.0781 
    109 H109      -74.3153   24.3376  -73.1543 H         1 UNK         0.0781 
    110 H110      -74.9512   26.6269  -70.6788 H         1 UNK         0.0836 
    111 H111      -76.4171   26.2467  -69.8165 H         1 UNK         0.0836 
    112 H112      -76.7379   26.9791  -74.0792 H         1 UNK         0.3022 
    113 H113      -78.8938   27.7852  -74.6923 H         1 UNK         0.0747 
    114 H114      -77.9334   27.9006  -77.6219 H         1 UNK         0.0793 
    115 H115      -78.5044   29.2630  -76.6595 H         1 UNK         0.0793 
    116 H116      -76.9806   28.4883  -76.2706 H         1 UNK         0.0793 
    117 H117      -80.0704   25.9743  -76.5140 H         1 UNK         0.3047 
    118 H118      -83.2020   27.7680  -76.7320 H         1 UNK         0.0822 
    119 H119      -81.9985   27.5550  -78.9487 H         1 UNK         0.0807 
    120 H120      -83.2160   26.3106  -78.7376 H         1 UNK         0.0807 
    121 H121      -81.5125   25.9194  -78.5213 H         1 UNK         0.0807 
    122 H122      -81.9246   25.6236  -75.3845 H         1 UNK         0.2946 
    123 H123      -84.8640   24.0067  -74.5413 H         1 UNK         0.1144 
    124 H124      -84.3613   22.5686  -76.5120 H         1 UNK         0.0793 
    125 H125      -83.7072   21.8546  -75.0476 H         1 UNK         0.0793 
    126 H126      -82.6372   22.6753  -76.1850 H         1 UNK         0.0793 
    127 H127      -81.9814   23.7015  -74.0357 H         1 UNK         0.2896 
@<TRIPOS>BOND
     1    1    2 1    
     2    1   67 1    
     3    1   68 1    
     4    1   69 1    
     5    2    3 2    
     6    2    4 am   BACKBONE|DICT|INTERRES
     7    4    5 1    
     8    4   70 1    
     9    5    6 1    
    10    5   65 1    
    11    5   71 1    
    12    6    7 1    
    13    6   72 1    
    14    6   73 1    
    15    7    8 1    
    16    8    9 1    
    17    8   74 1    
    18    8   75 1    
    19    9   10 ar   
    20    9   14 ar   
    21   10   11 ar   
    22   10   76 1    
    23   11   12 ar   
    24   11   48 1    
    25   12   13 ar   
    26   12   77 1    
    27   13   14 ar   
    28   13   15 1    
    29   14   78 1    
    30   15   16 1    
    31   15   79 1    
    32   15   80 1    
    33   16   17 1    
    34   17   18 1    
    35   17   81 1    
    36   17   82 1    
    37   18   19 1    
    38   18   22 1    
    39   18   83 1    
    40   19   20 am   BACKBONE|DICT|INTERRES
    41   19   21 2    
    42   20   84 1    
    43   20   85 1    
    44   22   23 am   BACKBONE|DICT|INTERRES
    45   22   86 1    
    46   23   24 2    
    47   23   25 1    
    48   25   26 1    
    49   25   27 1    
    50   25   87 1    
    51   26   88 1    
    52   26   89 1    
    53   26   90 1    
    54   27   28 am   BACKBONE|DICT|INTERRES
    55   27   91 1    
    56   28   29 2    
    57   28   30 1    
    58   30   31 1    
    59   30   32 1    
    60   30   92 1    
    61   31   93 1    
    62   31   94 1    
    63   31   95 1    
    64   32   33 am   BACKBONE|DICT|INTERRES
    65   32   96 1    
    66   33   34 2    
    67   33   35 1    
    68   35   36 1    
    69   35   37 1    
    70   35   97 1    
    71   36   98 1    
    72   36   99 1    
    73   36  100 1    
    74   37   38 am   BACKBONE|DICT|INTERRES
    75   37  101 1    
    76   38   39 2    
    77   38   40 1    
    78   40   41 1    
    79   40   42 1    
    80   40  102 1    
    81   41  103 1    
    82   41  104 1    
    83   41  105 1    
    84   42   43 am   BACKBONE|DICT|INTERRES
    85   42  106 1    
    86   43   44 2    
    87   43   45 1    
    88   45   46 1    
    89   45   49 1    
    90   45  107 1    
    91   46   47 1    
    92   46  108 1    
    93   46  109 1    
    94   47   48 1    
    95   48  110 1    
    96   48  111 1    
    97   49   50 am   BACKBONE|DICT|INTERRES
    98   49  112 1    
    99   50   51 2    
   100   50   52 1    
   101   52   53 1    
   102   52   54 1    
   103   52  113 1    
   104   53  114 1    
   105   53  115 1    
   106   53  116 1    
   107   54   55 am   BACKBONE|DICT|INTERRES
   108   54  117 1    
   109   55   56 2    
   110   55   57 1    
   111   57   58 1    
   112   57   59 1    
   113   57  118 1    
   114   58  119 1    
   115   58  120 1    
   116   58  121 1    
   117   59   60 am   BACKBONE|DICT|INTERRES
   118   59  122 1    
   119   60   61 2    
   120   60   62 1    
   121   62   63 1    
   122   62   64 1    
   123   62  123 1    
   124   63  124 1    
   125   63  125 1    
   126   63  126 1    
   127   64   65 am   BACKBONE|DICT|INTERRES
   128   64  127 1    
   129   65   66 2    
@<TRIPOS>SUBSTRUCTURE
     1 UNK         1 GROUP             0       ****    0 ROOT    
