@<TRIPOS>MOLECULE
3R135
127   129    1
SMALL
USER_CHARGES


@<TRIPOS>ATOM
      1 CA        -76.3073   29.4703  -77.0616 C.3       0 UNK        -0.1998 
      2 C         -76.8227   28.4025  -76.1120 C.2       0 UNK         0.4909 
      3 O         -76.2125   27.3375  -76.0021 O.2       0 UNK        -0.5240 
      4 N         -77.9428   28.6836  -75.4321 N.am      1 UNK        -0.4739 
      5 CA        -78.6221   27.7643  -74.5145 C.3       1 UNK         0.0864 
      6 C6        -79.6952   28.5028  -73.6681 C.3       11 UNK        -0.0881 
      7 S7        -80.6707   27.4176  -72.5645 S.3       11 UNK        -0.2682 
      8 C8        -79.8379   27.6406  -70.9626 C.3       11 UNK         0.0289 
      9 C9        -78.3542   27.3101  -71.0338 C.ar      11 UNK        -0.0687 
     10 C10       -77.9277   25.9957  -71.2455 C.ar      11 UNK        -0.0823 
     11 C11       -76.5638   25.6897  -71.3052 C.ar      11 UNK        -0.0830 
     12 C12       -75.6247   26.7172  -71.1470 C.ar      11 UNK        -0.1021 
     13 C13       -76.0406   28.0367  -70.9378 C.ar      11 UNK        -0.0753 
     14 C14       -77.4063   28.3236  -70.8789 C.ar      11 UNK        -0.0933 
     15 C15       -75.0269   29.1521  -70.7248 C.3       11 UNK         0.0166 
     16 S16       -75.1214   30.4206  -72.0287 S.3       11 UNK        -0.2615 
     17 C17       -74.0925   31.7314  -71.2856 C.3       11 UNK        -0.0865 
     18 CA        -73.3402   32.5857  -72.3380 C.3       10 UNK         0.0862 
     19 C         -72.6113   33.7675  -71.6391 C.2       10 UNK         0.5551 
     20 N         -73.2443   34.9301  -71.5640 N.am      10 UNK        -0.7319 
     21 O         -71.5034   33.6229  -71.1254 O.2       10 UNK        -0.5018 
     22 N         -72.4401   31.7583  -73.1554 N.am      10 UNK        -0.4509 
     23 C         -71.7096   32.1886  -74.1934 C.2       10 UNK         0.4899 
     24 O         -71.7448   33.3380  -74.6342 O.2       10 UNK        -0.4839 
     25 CA        -70.7793   31.1607  -74.8632 C.3       9 UNK         0.0222 
     26 CB        -69.3639   31.2561  -74.2701 C.3       9 UNK        -0.1966 
     27 N         -71.2604   29.7795  -74.7536 N.am      9 UNK        -0.4218 
     28 C         -72.3115   29.2913  -75.4254 C.2       9 UNK         0.5020 
     29 O         -72.9866   29.9504  -76.2199 O.2       9 UNK        -0.5274 
     30 CA        -72.6799   27.8278  -75.1328 C.3       8 UNK         0.0270 
     31 CB        -73.5985   27.7379  -73.9059 C.3       8 UNK        -0.1976 
     32 N         -73.3341   27.1993  -76.2840 N.am      8 UNK        -0.4313 
     33 C         -72.6655   26.7902  -77.3736 C.2       8 UNK         0.5041 
     34 O         -71.4379   26.8604  -77.4674 O.2       8 UNK        -0.5577 
     35 CA        -73.4644   26.1866  -78.5445 C.3       7 UNK         0.0284 
     36 CB        -72.6906   25.0374  -79.2303 C.3       7 UNK        -0.1958 
     37 N         -74.7900   25.7250  -78.1305 N.am      7 UNK        -0.4454 
     38 C         -75.8114   25.4460  -78.9483 C.2       7 UNK         0.5089 
     39 O         -75.7665   25.6062  -80.1693 O.2       7 UNK        -0.5125 
     40 CA        -77.1114   24.9181  -78.3036 C.3       6 UNK         0.0408 
     41 CB        -77.8041   23.8523  -79.1786 C.3       6 UNK        -0.1791 
     42 N         -76.9688   24.4392  -76.9200 N.am      6 UNK        -0.4762 
     43 C         -76.2097   23.4287  -76.4708 C.2       6 UNK         0.5007 
     44 O         -75.5356   22.6946  -77.1930 O.2       6 UNK        -0.5032 
     45 CA        -76.1786   23.2336  -74.9466 C.3       5 UNK         0.0783 
     46 C46       -75.4917   24.4345  -74.2451 C.3       11 UNK        -0.0857 
     47 S47       -74.7580   23.9742  -72.6424 S.3       11 UNK        -0.2512 
     48 C48       -76.1294   24.2354  -71.4689 C.3       11 UNK         0.0225 
     49 N         -77.5376   23.0177  -74.4435 N.am      5 UNK        -0.4615 
     50 C         -78.0932   21.8133  -74.2736 C.2       4 UNK         0.5053 
     51 O         -77.5248   20.7587  -74.5582 O.2       4 UNK        -0.5105 
     52 CA        -79.4978   21.7461  -73.6563 C.3       4 UNK         0.0263 
     53 CB        -79.4115   21.6792  -72.1186 C.3       4 UNK        -0.1981 
     54 N         -80.3961   22.8328  -74.0669 N.am      4 UNK        -0.4224 
     55 C         -81.7351   22.7199  -74.0456 C.2       3 UNK         0.4895 
     56 O         -82.3238   21.6883  -73.7173 O.2       3 UNK        -0.5091 
     57 CA        -82.5866   23.9459  -74.4287 C.3       3 UNK         0.0250 
     58 CB        -83.1392   24.6237  -73.1642 C.3       3 UNK        -0.1996 
     59 N         -81.8783   24.9381  -75.2367 N.am      3 UNK        -0.4254 
     60 C         -81.5077   24.7563  -76.5112 C.2       2 UNK         0.5004 
     61 O         -81.7774   23.7450  -77.1595 O.2       2 UNK        -0.5226 
     62 CA        -80.6881   25.8736  -77.1849 C.3       2 UNK         0.0269 
     63 CB        -81.5558   26.6419  -78.1948 C.3       2 UNK        -0.1926 
     64 N         -80.0439   26.8402  -76.2837 N.am      2 UNK        -0.4687 
     65 C         -79.1988   26.5588  -75.2808 C.2       1 UNK         0.5165 
     66 O         -78.8716   25.4148  -74.9602 O.2       1 UNK        -0.5079 
     67 H67       -75.6244   30.1388  -76.5356 H         1 UNK         0.0900 
     68 H68       -77.1236   30.0647  -77.4748 H         1 UNK         0.0900 
     69 H69       -75.7667   29.0135  -77.8924 H         1 UNK         0.0900 
     70 H70       -78.3803   29.5848  -75.5608 H         1 UNK         0.2959 
     71 H71       -77.8642   27.3720  -73.8328 H         1 UNK         0.1079 
     72 H72       -80.4011   29.0200  -74.3203 H         1 UNK         0.0837 
     73 H73       -79.2218   29.2852  -73.0728 H         1 UNK         0.0837 
     74 H74       -79.9942   28.6654  -70.6218 H         1 UNK         0.0685 
     75 H75       -80.3149   26.9957  -70.2234 H         1 UNK         0.0685 
     76 H76       -78.6652   25.2125  -71.3563 H         1 UNK         0.1434 
     77 H77       -74.5689   26.4855  -71.1712 H         1 UNK         0.1329 
     78 H78       -77.7279   29.3423  -70.7097 H         1 UNK         0.1335 
     79 H79       -74.0119   28.7538  -70.6859 H         1 UNK         0.0680 
     80 H80       -75.2170   29.6156  -69.7555 H         1 UNK         0.0680 
     81 H81       -73.3808   31.2853  -70.5877 H         1 UNK         0.1032 
     82 H82       -74.7511   32.3608  -70.6834 H         1 UNK         0.1032 
     83 H83       -74.0807   33.0066  -73.0215 H         1 UNK         0.0461 
     84 H84       -72.7951   35.7040  -71.0995 H         1 UNK         0.3453 
     85 H85       -74.1573   35.0542  -71.9735 H         1 UNK         0.3453 
     86 H86       -72.3499   30.7955  -72.8718 H         1 UNK         0.2984 
     87 H87       -70.7184   31.4147  -75.9238 H         1 UNK         0.0554 
     88 H88       -68.6703   30.5907  -74.7846 H         1 UNK         0.0847 
     89 H89       -69.3505   31.0032  -73.2090 H         1 UNK         0.0847 
     90 H90       -68.9690   32.2687  -74.3666 H         1 UNK         0.0847 
     91 H91       -70.7565   29.1697  -74.1250 H         1 UNK         0.3141 
     92 H92       -71.7637   27.2760  -74.9099 H         1 UNK         0.0743 
     93 H93       -73.1281   28.1850  -73.0302 H         1 UNK         0.0784 
     94 H94       -74.5448   28.2547  -74.0664 H         1 UNK         0.0784 
     95 H95       -73.8210   26.7037  -73.6516 H         1 UNK         0.0784 
     96 H96       -74.3511   27.2237  -76.2841 H         1 UNK         0.3213 
     97 H97       -73.5978   26.9939  -79.2678 H         1 UNK         0.0855 
     98 H98       -71.7109   25.3685  -79.5770 H         1 UNK         0.0814 
     99 H99       -73.2188   24.6572  -80.1044 H         1 UNK         0.0814 
    100 H100      -72.5322   24.2021  -78.5471 H         1 UNK         0.0814 
    101 H101      -74.9427   25.6014  -77.1396 H         1 UNK         0.3105 
    102 H102      -77.7649   25.7884  -78.2498 H         1 UNK         0.0547 
    103 H103      -78.0830   24.2626  -80.1497 H         1 UNK         0.0837 
    104 H104      -77.1516   22.9986  -79.3639 H         1 UNK         0.0837 
    105 H105      -78.7153   23.4787  -78.7120 H         1 UNK         0.0837 
    106 H106      -77.4863   24.9696  -76.2252 H         1 UNK         0.3020 
    107 H107      -75.5721   22.3428  -74.7639 H         1 UNK         0.1245 
    108 H108      -76.1752   25.2760  -74.1176 H         1 UNK         0.0781 
    109 H109      -74.6654   24.8130  -74.8498 H         1 UNK         0.0781 
    110 H110      -75.8189   23.8623  -70.4923 H         1 UNK         0.0836 
    111 H111      -76.9682   23.6122  -71.7759 H         1 UNK         0.0836 
    112 H112      -78.0760   23.8595  -74.2702 H         1 UNK         0.3022 
    113 H113      -79.9224   20.8030  -74.0085 H         1 UNK         0.0747 
    114 H114      -80.3667   21.3898  -71.6803 H         1 UNK         0.0793 
    115 H115      -78.6752   20.9423  -71.7942 H         1 UNK         0.0793 
    116 H116      -79.1288   22.6397  -71.6887 H         1 UNK         0.0793 
    117 H117      -79.9789   23.6993  -74.3869 H         1 UNK         0.3047 
    118 H118      -83.4334   23.5820  -75.0149 H         1 UNK         0.0822 
    119 H119      -83.7584   25.4867  -73.4095 H         1 UNK         0.0807 
    120 H120      -82.3390   24.9580  -72.5034 H         1 UNK         0.0807 
    121 H121      -83.7605   23.9324  -72.5931 H         1 UNK         0.0807 
    122 H122      -81.6097   25.7961  -74.7760 H         1 UNK         0.2946 
    123 H123      -79.9012   25.3653  -77.7385 H         1 UNK         0.1144 
    124 H124      -82.0300   25.9613  -78.9037 H         1 UNK         0.0793 
    125 H125      -80.9603   27.3453  -78.7770 H         1 UNK         0.0793 
    126 H126      -82.3503   27.2012  -77.6992 H         1 UNK         0.0793 
    127 H127      -80.2435   27.8129  -76.4670 H         1 UNK         0.2896 
@<TRIPOS>BOND
     1    1    2 1    
     2    1   67 1    
     3    1   68 1    
     4    1   69 1    
     5    2    3 2    
     6    2    4 am   BACKBONE|DICT|INTERRES
     7    4    5 1    
     8    4   70 1    
     9    5    6 1    
    10    5   65 1    
    11    5   71 1    
    12    6    7 1    
    13    6   72 1    
    14    6   73 1    
    15    7    8 1    
    16    8    9 1    
    17    8   74 1    
    18    8   75 1    
    19    9   10 ar   
    20    9   14 ar   
    21   10   11 ar   
    22   10   76 1    
    23   11   12 ar   
    24   11   48 1    
    25   12   13 ar   
    26   12   77 1    
    27   13   14 ar   
    28   13   15 1    
    29   14   78 1    
    30   15   16 1    
    31   15   79 1    
    32   15   80 1    
    33   16   17 1    
    34   17   18 1    
    35   17   81 1    
    36   17   82 1    
    37   18   19 1    
    38   18   22 1    
    39   18   83 1    
    40   19   20 am   BACKBONE|DICT|INTERRES
    41   19   21 2    
    42   20   84 1    
    43   20   85 1    
    44   22   23 am   BACKBONE|DICT|INTERRES
    45   22   86 1    
    46   23   24 2    
    47   23   25 1    
    48   25   26 1    
    49   25   27 1    
    50   25   87 1    
    51   26   88 1    
    52   26   89 1    
    53   26   90 1    
    54   27   28 am   BACKBONE|DICT|INTERRES
    55   27   91 1    
    56   28   29 2    
    57   28   30 1    
    58   30   31 1    
    59   30   32 1    
    60   30   92 1    
    61   31   93 1    
    62   31   94 1    
    63   31   95 1    
    64   32   33 am   BACKBONE|DICT|INTERRES
    65   32   96 1    
    66   33   34 2    
    67   33   35 1    
    68   35   36 1    
    69   35   37 1    
    70   35   97 1    
    71   36   98 1    
    72   36   99 1    
    73   36  100 1    
    74   37   38 am   BACKBONE|DICT|INTERRES
    75   37  101 1    
    76   38   39 2    
    77   38   40 1    
    78   40   41 1    
    79   40   42 1    
    80   40  102 1    
    81   41  103 1    
    82   41  104 1    
    83   41  105 1    
    84   42   43 am   BACKBONE|DICT|INTERRES
    85   42  106 1    
    86   43   44 2    
    87   43   45 1    
    88   45   46 1    
    89   45   49 1    
    90   45  107 1    
    91   46   47 1    
    92   46  108 1    
    93   46  109 1    
    94   47   48 1    
    95   48  110 1    
    96   48  111 1    
    97   49   50 am   BACKBONE|DICT|INTERRES
    98   49  112 1    
    99   50   51 2    
   100   50   52 1    
   101   52   53 1    
   102   52   54 1    
   103   52  113 1    
   104   53  114 1    
   105   53  115 1    
   106   53  116 1    
   107   54   55 am   BACKBONE|DICT|INTERRES
   108   54  117 1    
   109   55   56 2    
   110   55   57 1    
   111   57   58 1    
   112   57   59 1    
   113   57  118 1    
   114   58  119 1    
   115   58  120 1    
   116   58  121 1    
   117   59   60 am   BACKBONE|DICT|INTERRES
   118   59  122 1    
   119   60   61 2    
   120   60   62 1    
   121   62   63 1    
   122   62   64 1    
   123   62  123 1    
   124   63  124 1    
   125   63  125 1    
   126   63  126 1    
   127   64   65 am   BACKBONE|DICT|INTERRES
   128   64  127 1    
   129   65   66 2    
@<TRIPOS>SUBSTRUCTURE
     1 UNK         1 GROUP             0       ****    0 ROOT    
