@<TRIPOS>MOLECULE
3R135
127   129    1
SMALL
USER_CHARGES


@<TRIPOS>ATOM
      1 CA        -83.6965   25.9724  -69.1350 C.3       0 UNK        -0.1998 
      2 C         -83.1800   25.5574  -70.5042 C.2       0 UNK         0.4909 
      3 O         -83.8045   24.7311  -71.1719 O.2       0 UNK        -0.5240 
      4 N         -82.0438   26.1223  -70.9310 N.am      1 UNK        -0.4739 
      5 CA        -81.3898   25.8319  -72.2110 C.3       1 UNK         0.0864 
      6 C6        -80.4951   27.0041  -72.6885 C.3       11 UNK        -0.0881 
      7 S7        -81.4671   28.5064  -73.0470 S.3       11 UNK        -0.2682 
      8 C8        -80.5462   29.7768  -72.1252 C.3       11 UNK         0.0289 
      9 C9        -79.2031   30.0838  -72.7734 C.ar      11 UNK        -0.0687 
     10 C10       -79.1429   30.8895  -73.9150 C.ar      11 UNK        -0.0823 
     11 C11       -77.9134   31.1975  -74.5064 C.ar      11 UNK        -0.0830 
     12 C12       -76.7377   30.6885  -73.9440 C.ar      11 UNK        -0.1021 
     13 C13       -76.7858   29.8770  -72.8075 C.ar      11 UNK        -0.0753 
     14 C14       -78.0204   29.5805  -72.2237 C.ar      11 UNK        -0.0933 
     15 C15       -75.5035   29.3146  -72.2192 C.3       11 UNK         0.0166 
     16 S16       -74.5685   30.5860  -71.3145 S.3       11 UNK        -0.2615 
     17 C17       -73.1980   29.5865  -70.6397 C.3       11 UNK        -0.0865 
     18 CA        -71.8940   29.6700  -71.4770 C.3       10 UNK         0.0862 
     19 C         -70.7540   28.8843  -70.7626 C.2       10 UNK         0.5551 
     20 N         -70.3525   27.7115  -71.2414 N.am      10 UNK        -0.7319 
     21 O         -70.2292   29.3503  -69.7543 O.2       10 UNK        -0.5018 
     22 N         -72.1179   29.2639  -72.8724 N.am      10 UNK        -0.4509 
     23 C         -71.2512   29.4244  -73.8793 C.2       10 UNK         0.4899 
     24 O         -70.2166   30.0867  -73.7851 O.2       10 UNK        -0.4839 
     25 CA        -71.5899   28.7251  -75.2146 C.3       9 UNK         0.0222 
     26 CB        -70.3265   28.1998  -75.9267 C.3       9 UNK        -0.1966 
     27 N         -72.5954   27.6538  -75.1258 N.am      9 UNK        -0.4218 
     28 C         -72.5543   26.5449  -74.3675 C.2       9 UNK         0.5020 
     29 O         -71.6718   26.3047  -73.5416 O.2       9 UNK        -0.5274 
     30 CA        -73.7034   25.5410  -74.5544 C.3       8 UNK         0.0270 
     31 CB        -74.9932   26.0440  -73.8840 C.3       8 UNK        -0.1976 
     32 N         -73.9665   25.2574  -75.9645 N.am      8 UNK        -0.4313 
     33 C         -73.1342   24.6011  -76.7850 C.2       8 UNK         0.5041 
     34 O         -72.0690   24.0956  -76.4290 O.2       8 UNK        -0.5577 
     35 CA        -73.5586   24.5033  -78.2576 C.3       7 UNK         0.0284 
     36 CB        -74.6012   23.3911  -78.4597 C.3       7 UNK        -0.1958 
     37 N         -74.0864   25.7793  -78.7448 N.am      7 UNK        -0.4454 
     38 C         -73.3222   26.8107  -79.1308 C.2       7 UNK         0.5089 
     39 O         -72.0929   26.7699  -79.1812 O.2       7 UNK        -0.5125 
     40 CA        -74.0416   28.1088  -79.5425 C.3       6 UNK         0.0408 
     41 CB        -74.1846   28.1773  -81.0712 C.3       6 UNK        -0.1791 
     42 N         -75.3616   28.2803  -78.9288 N.am      6 UNK        -0.4762 
     43 C         -75.5684   28.5380  -77.6290 C.2       6 UNK         0.5007 
     44 O         -74.6669   28.6177  -76.7936 O.2       6 UNK        -0.5032 
     45 CA        -77.0424   28.6543  -77.1788 C.3       5 UNK         0.0783 
     46 C46       -77.6935   29.9969  -77.6073 C.3       11 UNK        -0.0857 
     47 S47       -76.7986   31.4942  -77.0633 S.3       11 UNK        -0.2512 
     48 C48       -77.8639   32.1177  -75.7217 C.3       11 UNK         0.0225 
     49 N         -77.8579   27.5176  -77.6337 N.am      5 UNK        -0.4615 
     50 C         -77.5735   26.2221  -77.4463 C.2       4 UNK         0.5053 
     51 O         -76.5436   25.8159  -76.9048 O.2       4 UNK        -0.5105 
     52 CA        -78.5759   25.2050  -78.0182 C.3       4 UNK         0.0263 
     53 CB        -78.2618   24.9245  -79.4971 C.3       4 UNK        -0.1981 
     54 N         -78.5383   23.9432  -77.2733 N.am      4 UNK        -0.4224 
     55 C         -78.9382   23.8151  -76.0020 C.2       3 UNK         0.4895 
     56 O         -79.5100   24.7125  -75.3763 O.2       3 UNK        -0.5091 
     57 CA        -78.6344   22.4701  -75.3215 C.3       3 UNK         0.0250 
     58 CB        -77.1173   22.2721  -75.1470 C.3       3 UNK        -0.1996 
     59 N         -79.2589   22.4653  -74.0023 N.am      3 UNK        -0.4254 
     60 C         -80.1851   21.6127  -73.5583 C.2       2 UNK         0.5004 
     61 O         -80.5241   20.5924  -74.1591 O.2       2 UNK        -0.5226 
     62 CA        -80.8870   21.9786  -72.2355 C.3       2 UNK         0.0269 
     63 CB        -80.0295   21.5888  -71.0152 C.3       2 UNK        -0.1926 
     64 N         -81.3372   23.3807  -72.1683 N.am      2 UNK        -0.4687 
     65 C         -80.6073   24.5058  -72.1200 C.2       1 UNK         0.5165 
     66 O         -79.3791   24.5206  -72.0149 O.2       1 UNK        -0.5079 
     67 H67       -84.6956   26.3980  -69.2248 H         1 UNK         0.0900 
     68 H68       -83.0527   26.7151  -68.6641 H         1 UNK         0.0900 
     69 H69       -83.7527   25.1055  -68.4772 H         1 UNK         0.0900 
     70 H70       -81.5643   26.7835  -70.3372 H         1 UNK         0.2959 
     71 H71       -82.1599   25.6897  -72.9732 H         1 UNK         0.1079 
     72 H72       -79.7255   27.2203  -71.9463 H         1 UNK         0.0837 
     73 H73       -79.9639   26.7357  -73.6039 H         1 UNK         0.0837 
     74 H74       -80.4177   29.4579  -71.0896 H         1 UNK         0.0685 
     75 H75       -81.1456   30.6876  -72.0896 H         1 UNK         0.0685 
     76 H76       -80.0588   31.2830  -74.3349 H         1 UNK         0.1434 
     77 H77       -75.7802   30.9269  -74.3875 H         1 UNK         0.1329 
     78 H78       -78.0599   28.9597  -71.3392 H         1 UNK         0.1335 
     79 H79       -74.8881   28.9177  -73.0259 H         1 UNK         0.0680 
     80 H80       -75.7251   28.4794  -71.5528 H         1 UNK         0.0680 
     81 H81       -73.0122   29.9447  -69.6250 H         1 UNK         0.1032 
     82 H82       -73.5189   28.5487  -70.5300 H         1 UNK         0.1032 
     83 H83       -71.5806   30.7156  -71.4974 H         1 UNK         0.0461 
     84 H84       -70.7900   27.3074  -72.0639 H         1 UNK         0.3453 
     85 H85       -69.6136   27.2136  -70.7715 H         1 UNK         0.3453 
     86 H86       -72.9335   28.6992  -73.0440 H         1 UNK         0.2984 
     87 H87       -72.0318   29.4936  -75.8503 H         1 UNK         0.0554 
     88 H88       -70.5745   27.7384  -76.8830 H         1 UNK         0.0847 
     89 H89       -69.8039   27.4573  -75.3226 H         1 UNK         0.0847 
     90 H90       -69.6228   29.0072  -76.1325 H         1 UNK         0.0847 
     91 H91       -73.3989   27.7878  -75.7390 H         1 UNK         0.3141 
     92 H92       -73.4108   24.6062  -74.0716 H         1 UNK         0.0743 
     93 H93       -74.8246   26.2749  -72.8315 H         1 UNK         0.0784 
     94 H94       -75.3776   26.9434  -74.3668 H         1 UNK         0.0784 
     95 H95       -75.7798   25.2907  -73.9263 H         1 UNK         0.0784 
     96 H96       -74.8590   25.5814  -76.3371 H         1 UNK         0.3213 
     97 H97       -72.6744   24.2419  -78.8436 H         1 UNK         0.0855 
     98 H98       -75.5149   23.5805  -77.8977 H         1 UNK         0.0814 
     99 H99       -74.2100   22.4288  -78.1267 H         1 UNK         0.0814 
    100 H100      -74.8684   23.2849  -79.5111 H         1 UNK         0.0814 
    101 H101      -75.0838   25.9213  -78.6718 H         1 UNK         0.3105 
    102 H102      -73.4132   28.9433  -79.2234 H         1 UNK         0.0547 
    103 H103      -74.8188   27.3772  -81.4550 H         1 UNK         0.0837 
    104 H104      -74.6120   29.1285  -81.3887 H         1 UNK         0.0837 
    105 H105      -73.2129   28.0835  -81.5583 H         1 UNK         0.0837 
    106 H106      -76.1628   28.2104  -79.5397 H         1 UNK         0.3020 
    107 H107      -77.0377   28.6173  -76.0869 H         1 UNK         0.1245 
    108 H108      -78.7164   30.0446  -77.2302 H         1 UNK         0.0781 
    109 H109      -77.7787   30.0438  -78.6944 H         1 UNK         0.0781 
    110 H110      -77.4864   33.0898  -75.4022 H         1 UNK         0.0836 
    111 H111      -78.8642   32.2945  -76.1204 H         1 UNK         0.0836 
    112 H112      -78.7191   27.7544  -78.1046 H         1 UNK         0.3022 
    113 H113      -79.5829   25.6208  -77.9408 H         1 UNK         0.0747 
    114 H114      -78.3141   25.8381  -80.0908 H         1 UNK         0.0793 
    115 H115      -78.9762   24.2222  -79.9271 H         1 UNK         0.0793 
    116 H116      -77.2626   24.5079  -79.6290 H         1 UNK         0.0793 
    117 H117      -78.0657   23.1697  -77.7163 H         1 UNK         0.3047 
    118 H118      -79.0405   21.6698  -75.9438 H         1 UNK         0.0822 
    119 H119      -76.6103   22.2054  -76.1097 H         1 UNK         0.0807 
    120 H120      -76.8993   21.3510  -74.6063 H         1 UNK         0.0807 
    121 H121      -76.6638   23.0969  -74.5961 H         1 UNK         0.0807 
    122 H122      -79.1048   23.3044  -73.4482 H         1 UNK         0.2946 
    123 H123      -81.7974   21.3776  -72.1948 H         1 UNK         0.1144 
    124 H124      -79.8075   20.5209  -71.0246 H         1 UNK         0.0793 
    125 H125      -80.5489   21.8036  -70.0813 H         1 UNK         0.0793 
    126 H126      -79.0745   22.1145  -70.9968 H         1 UNK         0.0793 
    127 H127      -82.3437   23.5067  -72.1921 H         1 UNK         0.2896 
@<TRIPOS>BOND
     1    1    2 1    
     2    1   67 1    
     3    1   68 1    
     4    1   69 1    
     5    2    3 2    
     6    2    4 am   BACKBONE|DICT|INTERRES
     7    4    5 1    
     8    4   70 1    
     9    5    6 1    
    10    5   65 1    
    11    5   71 1    
    12    6    7 1    
    13    6   72 1    
    14    6   73 1    
    15    7    8 1    
    16    8    9 1    
    17    8   74 1    
    18    8   75 1    
    19    9   10 ar   
    20    9   14 ar   
    21   10   11 ar   
    22   10   76 1    
    23   11   12 ar   
    24   11   48 1    
    25   12   13 ar   
    26   12   77 1    
    27   13   14 ar   
    28   13   15 1    
    29   14   78 1    
    30   15   16 1    
    31   15   79 1    
    32   15   80 1    
    33   16   17 1    
    34   17   18 1    
    35   17   81 1    
    36   17   82 1    
    37   18   19 1    
    38   18   22 1    
    39   18   83 1    
    40   19   20 am   BACKBONE|DICT|INTERRES
    41   19   21 2    
    42   20   84 1    
    43   20   85 1    
    44   22   23 am   BACKBONE|DICT|INTERRES
    45   22   86 1    
    46   23   24 2    
    47   23   25 1    
    48   25   26 1    
    49   25   27 1    
    50   25   87 1    
    51   26   88 1    
    52   26   89 1    
    53   26   90 1    
    54   27   28 am   BACKBONE|DICT|INTERRES
    55   27   91 1    
    56   28   29 2    
    57   28   30 1    
    58   30   31 1    
    59   30   32 1    
    60   30   92 1    
    61   31   93 1    
    62   31   94 1    
    63   31   95 1    
    64   32   33 am   BACKBONE|DICT|INTERRES
    65   32   96 1    
    66   33   34 2    
    67   33   35 1    
    68   35   36 1    
    69   35   37 1    
    70   35   97 1    
    71   36   98 1    
    72   36   99 1    
    73   36  100 1    
    74   37   38 am   BACKBONE|DICT|INTERRES
    75   37  101 1    
    76   38   39 2    
    77   38   40 1    
    78   40   41 1    
    79   40   42 1    
    80   40  102 1    
    81   41  103 1    
    82   41  104 1    
    83   41  105 1    
    84   42   43 am   BACKBONE|DICT|INTERRES
    85   42  106 1    
    86   43   44 2    
    87   43   45 1    
    88   45   46 1    
    89   45   49 1    
    90   45  107 1    
    91   46   47 1    
    92   46  108 1    
    93   46  109 1    
    94   47   48 1    
    95   48  110 1    
    96   48  111 1    
    97   49   50 am   BACKBONE|DICT|INTERRES
    98   49  112 1    
    99   50   51 2    
   100   50   52 1    
   101   52   53 1    
   102   52   54 1    
   103   52  113 1    
   104   53  114 1    
   105   53  115 1    
   106   53  116 1    
   107   54   55 am   BACKBONE|DICT|INTERRES
   108   54  117 1    
   109   55   56 2    
   110   55   57 1    
   111   57   58 1    
   112   57   59 1    
   113   57  118 1    
   114   58  119 1    
   115   58  120 1    
   116   58  121 1    
   117   59   60 am   BACKBONE|DICT|INTERRES
   118   59  122 1    
   119   60   61 2    
   120   60   62 1    
   121   62   63 1    
   122   62   64 1    
   123   62  123 1    
   124   63  124 1    
   125   63  125 1    
   126   63  126 1    
   127   64   65 am   BACKBONE|DICT|INTERRES
   128   64  127 1    
   129   65   66 2    
@<TRIPOS>SUBSTRUCTURE
     1 UNK         1 GROUP             0       ****    0 ROOT    
