@<TRIPOS>MOLECULE
3R135
127   129    1
SMALL
USER_CHARGES


@<TRIPOS>ATOM
      1 CA        -84.8168   29.3871  -76.5364 C.3       0 UNK        -0.1998 
      2 C         -83.6626   28.5447  -76.0153 C.2       0 UNK         0.4909 
      3 O         -83.8923   27.4476  -75.5044 O.2       0 UNK        -0.5240 
      4 N         -82.4267   29.0465  -76.1531 N.am      1 UNK        -0.4739 
      5 CA        -81.1480   28.4533  -75.7244 C.3       1 UNK         0.0864 
      6 C6        -81.0559   28.1926  -74.1929 C.3       11 UNK        -0.0881 
      7 S7        -81.0043   29.7648  -73.2710 S.3       11 UNK        -0.2682 
      8 C8        -80.7107   29.2001  -71.5640 C.3       11 UNK         0.0289 
      9 C9        -79.2435   28.9062  -71.2659 C.ar      11 UNK        -0.0687 
     10 C10       -78.8473   27.6241  -70.8719 C.ar      11 UNK        -0.0823 
     11 C11       -77.5216   27.3702  -70.5039 C.ar      11 UNK        -0.0830 
     12 C12       -76.5825   28.4033  -70.5525 C.ar      11 UNK        -0.1021 
     13 C13       -76.9578   29.6858  -70.9639 C.ar      11 UNK        -0.0753 
     14 C14       -78.2913   29.9316  -71.3125 C.ar      11 UNK        -0.0933 
     15 C15       -75.9369   30.8170  -70.9822 C.3       11 UNK         0.0166 
     16 S16       -74.8635   30.7627  -72.4537 S.3       11 UNK        -0.2615 
     17 C17       -73.6326   29.5001  -71.9734 C.3       11 UNK        -0.0865 
     18 CA        -72.2839   29.6430  -72.7309 C.3       10 UNK         0.0862 
     19 C         -71.2011   28.6692  -72.1773 C.2       10 UNK         0.5551 
     20 N         -70.4692   27.9322  -73.0061 N.am      10 UNK        -0.7319 
     21 O         -71.0078   28.5909  -70.9666 O.2       10 UNK        -0.5018 
     22 N         -72.4608   29.5343  -74.1876 N.am      10 UNK        -0.4509 
     23 C         -71.8426   30.3009  -75.0932 C.2       10 UNK         0.4899 
     24 O         -71.0941   31.2354  -74.8006 O.2       10 UNK        -0.4839 
     25 CA        -72.1088   29.9719  -76.5760 C.3       9 UNK         0.0222 
     26 CB        -71.0613   30.5927  -77.5254 C.3       9 UNK        -0.1966 
     27 N         -72.2684   28.5380  -76.8504 N.am      9 UNK        -0.4218 
     28 C         -71.3695   27.5597  -76.6484 C.2       9 UNK         0.5020 
     29 O         -70.2667   27.7495  -76.1326 O.2       9 UNK        -0.5274 
     30 CA        -71.7663   26.1298  -77.0738 C.3       8 UNK         0.0270 
     31 CB        -71.2045   25.0673  -76.1099 C.3       8 UNK        -0.1976 
     32 N         -73.2202   25.9786  -77.1459 N.am      8 UNK        -0.4313 
     33 C         -73.9564   25.9413  -78.2656 C.2       8 UNK         0.5041 
     34 O         -73.4755   25.9333  -79.3989 O.2       8 UNK        -0.5577 
     35 CA        -75.4919   25.9435  -78.1027 C.3       7 UNK         0.0284 
     36 CB        -76.0634   24.5391  -78.3530 C.3       7 UNK        -0.1958 
     37 N         -75.9482   26.4221  -76.7928 N.am      7 UNK        -0.4454 
     38 C         -75.7598   27.6666  -76.3275 C.2       7 UNK         0.5089 
     39 O         -75.2462   28.5701  -76.9869 O.2       7 UNK        -0.5125 
     40 CA        -76.1039   27.9157  -74.8501 C.3       6 UNK         0.0408 
     41 CB        -77.5804   28.2681  -74.6988 C.3       6 UNK        -0.1791 
     42 N         -75.7928   26.7690  -73.9926 N.am      6 UNK        -0.4762 
     43 C         -74.5591   26.2919  -73.7879 C.2       6 UNK         0.5007 
     44 O         -73.5484   26.8133  -74.2552 O.2       6 UNK        -0.5032 
     45 CA        -74.4517   24.9594  -73.0441 C.3       5 UNK         0.0783 
     46 C46       -74.9481   25.0173  -71.5715 C.3       11 UNK        -0.0857 
     47 S47       -76.7600   24.8531  -71.3679 S.3       11 UNK        -0.2512 
     48 C48       -77.1227   25.9918  -70.0006 C.3       11 UNK         0.0225 
     49 N         -75.1432   23.9792  -73.8703 N.am      5 UNK        -0.4615 
     50 C         -74.9577   22.6636  -73.9052 C.2       4 UNK         0.5053 
     51 O         -74.1120   22.0722  -73.2326 O.2       4 UNK        -0.5105 
     52 CA        -75.8959   21.8943  -74.8609 C.3       4 UNK         0.0263 
     53 CB        -75.6699   20.3719  -74.8080 C.3       4 UNK        -0.1981 
     54 N         -77.3219   22.1701  -74.6295 N.am      4 UNK        -0.4224 
     55 C         -77.9854   23.3033  -74.9067 C.2       3 UNK         0.4895 
     56 O         -77.4555   24.3220  -75.3648 O.2       3 UNK        -0.5091 
     57 CA        -79.4816   23.3075  -74.5454 C.3       3 UNK         0.0250 
     58 CB        -79.6850   23.7647  -73.0927 C.3       3 UNK        -0.1996 
     59 N         -80.2794   24.1704  -75.4160 N.am      3 UNK        -0.4254 
     60 C         -80.5016   23.9737  -76.7224 C.2       2 UNK         0.5004 
     61 O         -80.0563   23.0159  -77.3564 O.2       2 UNK        -0.5226 
     62 CA        -81.4075   24.9930  -77.4407 C.3       2 UNK         0.0269 
     63 CB        -82.7739   24.3659  -77.7644 C.3       2 UNK        -0.1926 
     64 N         -81.6277   26.2286  -76.6799 N.am      2 UNK        -0.4687 
     65 C         -80.7394   27.2218  -76.5620 C.2       1 UNK         0.5165 
     66 O         -79.6360   27.2022  -77.1065 O.2       1 UNK        -0.5079 
     67 H67       -85.3605   28.8420  -77.3075 H         1 UNK         0.0900 
     68 H68       -84.4750   30.3296  -76.9637 H         1 UNK         0.0900 
     69 H69       -85.5096   29.6139  -75.7265 H         1 UNK         0.0900 
     70 H70       -82.3300   29.9453  -76.6054 H         1 UNK         0.2959 
     71 H71       -80.3967   29.2084  -75.9634 H         1 UNK         0.1079 
     72 H72       -81.8998   27.5997  -73.8385 H         1 UNK         0.0837 
     73 H73       -80.1680   27.6193  -73.9307 H         1 UNK         0.0837 
     74 H74       -81.3368   28.3300  -71.3602 H         1 UNK         0.0685 
     75 H75       -81.0492   29.9811  -70.8819 H         1 UNK         0.0685 
     76 H76       -79.5767   26.8273  -70.8190 H         1 UNK         0.1434 
     77 H77       -75.5622   28.2130  -70.2518 H         1 UNK         0.1329 
     78 H78       -78.5955   30.9260  -71.6094 H         1 UNK         0.1335 
     79 H79       -76.4500   31.7798  -70.9705 H         1 UNK         0.0680 
     80 H80       -75.3323   30.7916  -70.0746 H         1 UNK         0.0680 
     81 H81       -73.4640   29.5818  -70.8982 H         1 UNK         0.1032 
     82 H82       -74.0630   28.5141  -72.1368 H         1 UNK         0.1032 
     83 H83       -71.9058   30.6400  -72.4984 H         1 UNK         0.0461 
     84 H84       -70.5918   27.9979  -74.0086 H         1 UNK         0.3453 
     85 H85       -69.7697   27.3150  -72.6266 H         1 UNK         0.3453 
     86 H86       -72.9960   28.7306  -74.4976 H         1 UNK         0.2984 
     87 H87       -73.0715   30.4280  -76.8109 H         1 UNK         0.0554 
     88 H88       -71.2884   30.3698  -78.5679 H         1 UNK         0.0847 
     89 H89       -70.0566   30.2250  -77.3145 H         1 UNK         0.0847 
     90 H90       -71.0369   31.6786  -77.4271 H         1 UNK         0.0847 
     91 H91       -73.1792   28.2808  -77.2150 H         1 UNK         0.3141 
     92 H92       -71.3229   25.9597  -78.0567 H         1 UNK         0.0743 
     93 H93       -70.1140   25.0846  -76.0997 H         1 UNK         0.0784 
     94 H94       -71.5412   25.2301  -75.0857 H         1 UNK         0.0784 
     95 H95       -71.5069   24.0629  -76.4067 H         1 UNK         0.0784 
     96 H96       -73.6991   26.0349  -76.2556 H         1 UNK         0.3213 
     97 H97       -75.8978   26.6179  -78.8597 H         1 UNK         0.0855 
     98 H98       -75.7992   24.1812  -79.3489 H         1 UNK         0.0814 
     99 H99       -77.1519   24.5340  -78.2843 H         1 UNK         0.0814 
    100 H100      -75.6797   23.8158  -77.6341 H         1 UNK         0.0814 
    101 H101      -76.4450   25.7521  -76.2116 H         1 UNK         0.3105 
    102 H102      -75.5108   28.7662  -74.5113 H         1 UNK         0.0547 
    103 H103      -77.8099   28.5683  -73.6790 H         1 UNK         0.0837 
    104 H104      -77.8635   29.0921  -75.3549 H         1 UNK         0.0837 
    105 H105      -78.1988   27.4085  -74.9492 H         1 UNK         0.0837 
    106 H106      -76.5729   26.2946  -73.5571 H         1 UNK         0.3020 
    107 H107      -73.3902   24.6998  -73.0302 H         1 UNK         0.1245 
    108 H108      -74.5955   25.9273  -71.0827 H         1 UNK         0.0781 
    109 H109      -74.4948   24.1950  -71.0161 H         1 UNK         0.0781 
    110 H110      -76.2695   26.0534  -69.3233 H         1 UNK         0.0836 
    111 H111      -77.9397   25.5733  -69.4108 H         1 UNK         0.0836 
    112 H112      -75.8999   24.3414  -74.4454 H         1 UNK         0.3022 
    113 H113      -75.6517   22.2250  -75.8717 H         1 UNK         0.0747 
    114 H114      -76.2906   19.8521  -75.5381 H         1 UNK         0.0793 
    115 H115      -74.6324   20.1214  -75.0341 H         1 UNK         0.0793 
    116 H116      -75.8965   19.9645  -73.8218 H         1 UNK         0.0793 
    117 H117      -77.8417   21.4157  -74.2046 H         1 UNK         0.3047 
    118 H118      -79.8646   22.2900  -74.6494 H         1 UNK         0.0822 
    119 H119      -79.1215   23.1384  -72.3998 H         1 UNK         0.0807 
    120 H120      -80.7331   23.7037  -72.7992 H         1 UNK         0.0807 
    121 H121      -79.3555   24.7942  -72.9455 H         1 UNK         0.0807 
    122 H122      -80.6839   24.9915  -74.9939 H         1 UNK         0.2946 
    123 H123      -80.9152   25.2478  -78.3822 H         1 UNK         0.1144 
    124 H124      -82.6584   23.4587  -78.3593 H         1 UNK         0.0793 
    125 H125      -83.3982   25.0506  -78.3388 H         1 UNK         0.0793 
    126 H126      -83.3178   24.0958  -76.8583 H         1 UNK         0.0793 
    127 H127      -82.5327   26.3560  -76.2321 H         1 UNK         0.2896 
@<TRIPOS>BOND
     1    1    2 1    
     2    1   67 1    
     3    1   68 1    
     4    1   69 1    
     5    2    3 2    
     6    2    4 am   BACKBONE|DICT|INTERRES
     7    4    5 1    
     8    4   70 1    
     9    5    6 1    
    10    5   65 1    
    11    5   71 1    
    12    6    7 1    
    13    6   72 1    
    14    6   73 1    
    15    7    8 1    
    16    8    9 1    
    17    8   74 1    
    18    8   75 1    
    19    9   10 ar   
    20    9   14 ar   
    21   10   11 ar   
    22   10   76 1    
    23   11   12 ar   
    24   11   48 1    
    25   12   13 ar   
    26   12   77 1    
    27   13   14 ar   
    28   13   15 1    
    29   14   78 1    
    30   15   16 1    
    31   15   79 1    
    32   15   80 1    
    33   16   17 1    
    34   17   18 1    
    35   17   81 1    
    36   17   82 1    
    37   18   19 1    
    38   18   22 1    
    39   18   83 1    
    40   19   20 am   BACKBONE|DICT|INTERRES
    41   19   21 2    
    42   20   84 1    
    43   20   85 1    
    44   22   23 am   BACKBONE|DICT|INTERRES
    45   22   86 1    
    46   23   24 2    
    47   23   25 1    
    48   25   26 1    
    49   25   27 1    
    50   25   87 1    
    51   26   88 1    
    52   26   89 1    
    53   26   90 1    
    54   27   28 am   BACKBONE|DICT|INTERRES
    55   27   91 1    
    56   28   29 2    
    57   28   30 1    
    58   30   31 1    
    59   30   32 1    
    60   30   92 1    
    61   31   93 1    
    62   31   94 1    
    63   31   95 1    
    64   32   33 am   BACKBONE|DICT|INTERRES
    65   32   96 1    
    66   33   34 2    
    67   33   35 1    
    68   35   36 1    
    69   35   37 1    
    70   35   97 1    
    71   36   98 1    
    72   36   99 1    
    73   36  100 1    
    74   37   38 am   BACKBONE|DICT|INTERRES
    75   37  101 1    
    76   38   39 2    
    77   38   40 1    
    78   40   41 1    
    79   40   42 1    
    80   40  102 1    
    81   41  103 1    
    82   41  104 1    
    83   41  105 1    
    84   42   43 am   BACKBONE|DICT|INTERRES
    85   42  106 1    
    86   43   44 2    
    87   43   45 1    
    88   45   46 1    
    89   45   49 1    
    90   45  107 1    
    91   46   47 1    
    92   46  108 1    
    93   46  109 1    
    94   47   48 1    
    95   48  110 1    
    96   48  111 1    
    97   49   50 am   BACKBONE|DICT|INTERRES
    98   49  112 1    
    99   50   51 2    
   100   50   52 1    
   101   52   53 1    
   102   52   54 1    
   103   52  113 1    
   104   53  114 1    
   105   53  115 1    
   106   53  116 1    
   107   54   55 am   BACKBONE|DICT|INTERRES
   108   54  117 1    
   109   55   56 2    
   110   55   57 1    
   111   57   58 1    
   112   57   59 1    
   113   57  118 1    
   114   58  119 1    
   115   58  120 1    
   116   58  121 1    
   117   59   60 am   BACKBONE|DICT|INTERRES
   118   59  122 1    
   119   60   61 2    
   120   60   62 1    
   121   62   63 1    
   122   62   64 1    
   123   62  123 1    
   124   63  124 1    
   125   63  125 1    
   126   63  126 1    
   127   64   65 am   BACKBONE|DICT|INTERRES
   128   64  127 1    
   129   65   66 2    
@<TRIPOS>SUBSTRUCTURE
     1 UNK         1 GROUP             0       ****    0 ROOT    
