@<TRIPOS>MOLECULE
3R135
127   129    1
SMALL
USER_CHARGES


@<TRIPOS>ATOM
      1 CA        -81.0751   22.5172  -70.9037 C.3       0 UNK        -0.1998 
      2 C         -81.8403   23.7727  -71.2949 C.2       0 UNK         0.4909 
      3 O         -82.9979   23.9332  -70.9051 O.2       0 UNK        -0.5240 
      4 N         -81.1984   24.6607  -72.0597 N.am      1 UNK        -0.4739 
      5 CA        -81.7919   25.8797  -72.6172 C.3       1 UNK         0.0864 
      6 C6        -80.7221   26.9916  -72.7669 C.3       11 UNK        -0.0881 
      7 S7        -80.0950   27.5530  -71.1489 S.3       11 UNK        -0.2682 
      8 C8        -79.5483   29.2429  -71.5461 C.3       11 UNK         0.0289 
      9 C9        -78.2881   29.2322  -72.3973 C.ar      11 UNK        -0.0687 
     10 C10       -78.3722   29.3121  -73.7918 C.ar      11 UNK        -0.0823 
     11 C11       -77.2134   29.2848  -74.5732 C.ar      11 UNK        -0.0830 
     12 C12       -75.9663   29.1991  -73.9487 C.ar      11 UNK        -0.1021 
     13 C13       -75.8706   29.1150  -72.5583 C.ar      11 UNK        -0.0753 
     14 C14       -77.0343   29.1335  -71.7857 C.ar      11 UNK        -0.0933 
     15 C15       -74.5072   28.9796  -71.9037 C.3       11 UNK         0.0166 
     16 S16       -73.8344   30.6069  -71.4483 S.3       11 UNK        -0.2615 
     17 C17       -72.0387   30.3142  -71.6111 C.3       11 UNK        -0.0865 
     18 CA        -71.4401   31.0266  -72.8522 C.3       10 UNK         0.0862 
     19 C         -69.9044   30.8247  -72.9183 C.2       10 UNK         0.5551 
     20 N         -69.1292   31.7811  -72.4280 N.am      10 UNK        -0.7319 
     21 O         -69.4156   29.7900  -73.3668 O.2       10 UNK        -0.5018 
     22 N         -72.0791   30.5899  -74.1013 N.am      10 UNK        -0.4509 
     23 C         -72.1761   31.3411  -75.2041 C.2       10 UNK         0.4899 
     24 O         -71.7917   32.5101  -75.2775 O.2       10 UNK        -0.4839 
     25 CA        -72.8139   30.6532  -76.4261 C.3       9 UNK         0.0222 
     26 CB        -72.8914   31.5672  -77.6678 C.3       9 UNK        -0.1966 
     27 N         -72.1573   29.3811  -76.7497 N.am      9 UNK        -0.4218 
     28 C         -70.8792   29.1817  -77.1019 C.2       9 UNK         0.5020 
     29 O         -70.0423   30.0792  -77.2169 O.2       9 UNK        -0.5274 
     30 CA        -70.4779   27.7160  -77.3668 C.3       8 UNK         0.0270 
     31 CB        -69.0843   27.5917  -78.0124 C.3       8 UNK        -0.1976 
     32 N         -70.5093   26.8978  -76.1511 N.am      8 UNK        -0.4313 
     33 C         -71.6140   26.4775  -75.5239 C.2       8 UNK         0.5041 
     34 O         -72.7586   26.7731  -75.8834 O.2       8 UNK        -0.5577 
     35 CA        -71.3974   25.6159  -74.2713 C.3       7 UNK         0.0284 
     36 CB        -71.1169   26.4998  -73.0466 C.3       7 UNK        -0.1958 
     37 N         -72.5896   24.8147  -74.0095 N.am      7 UNK        -0.4454 
     38 C         -72.8228   23.5940  -74.4986 C.2       7 UNK         0.5089 
     39 O         -71.9929   22.9375  -75.1292 O.2       7 UNK        -0.5125 
     40 CA        -74.2266   23.0067  -74.2615 C.3       6 UNK         0.0408 
     41 CB        -74.4299   22.6024  -72.7881 C.3       6 UNK        -0.1791 
     42 N         -75.3234   23.8579  -74.7470 N.am      6 UNK        -0.4762 
     43 C         -75.7140   25.0679  -74.3117 C.2       6 UNK         0.5007 
     44 O         -75.1771   25.6688  -73.3801 O.2       6 UNK        -0.5032 
     45 CA        -76.9088   25.7153  -75.0411 C.3       5 UNK         0.0783 
     46 C46       -76.4147   26.6355  -76.1843 C.3       11 UNK        -0.0857 
     47 S47       -77.7569   27.7091  -76.7978 S.3       11 UNK        -0.2512 
     48 C48       -77.3041   29.3284  -76.0922 C.3       11 UNK         0.0225 
     49 N         -77.8567   24.7135  -75.5420 N.am      5 UNK        -0.4615 
     50 C         -78.6485   23.9452  -74.7868 C.2       4 UNK         0.5053 
     51 O         -78.7439   24.0466  -73.5621 O.2       4 UNK        -0.5105 
     52 CA        -79.4750   22.8982  -75.5504 C.3       4 UNK         0.0263 
     53 CB        -80.1746   21.8906  -74.6190 C.3       4 UNK        -0.1981 
     54 N         -80.4687   23.5479  -76.4075 N.am      4 UNK        -0.4224 
     55 C         -80.2362   23.9870  -77.6538 C.2       3 UNK         0.4895 
     56 O         -79.1340   23.9058  -78.1986 O.2       3 UNK        -0.5091 
     57 CA        -81.4088   24.6070  -78.4387 C.3       3 UNK         0.0250 
     58 CB        -81.9921   23.5796  -79.4227 C.3       3 UNK        -0.1996 
     59 N         -82.4843   25.1066  -77.5793 N.am      3 UNK        -0.4254 
     60 C         -82.4595   26.2864  -76.9459 C.2       2 UNK         0.5004 
     61 O         -81.5600   27.1163  -77.0797 O.2       2 UNK        -0.5226 
     62 CA        -83.6039   26.5887  -75.9565 C.3       2 UNK         0.0269 
     63 CB        -84.8378   25.6668  -76.0996 C.3       2 UNK        -0.1926 
     64 N         -83.0979   26.5857  -74.5768 N.am      2 UNK        -0.4687 
     65 C         -82.4648   25.5684  -73.9713 C.2       1 UNK         0.5165 
     66 O         -82.3777   24.4419  -74.4680 O.2       1 UNK        -0.5079 
     67 H67       -80.0612   22.5199  -71.3047 H         1 UNK         0.0900 
     68 H68       -81.5867   21.6330  -71.2827 H         1 UNK         0.0900 
     69 H69       -81.0111   22.4379  -69.8189 H         1 UNK         0.0900 
     70 H70       -80.2678   24.4429  -72.4062 H         1 UNK         0.2959 
     71 H71       -82.5763   26.2394  -71.9474 H         1 UNK         0.1079 
     72 H72       -79.8808   26.6454  -73.3709 H         1 UNK         0.0837 
     73 H73       -81.1313   27.8601  -73.2850 H         1 UNK         0.0837 
     74 H74       -80.3503   29.7872  -72.0472 H         1 UNK         0.0685 
     75 H75       -79.3564   29.7775  -70.6145 H         1 UNK         0.0685 
     76 H76       -79.3388   29.3770  -74.2724 H         1 UNK         0.1434 
     77 H77       -75.0656   29.1742  -74.5445 H         1 UNK         0.1329 
     78 H78       -76.9646   29.0634  -70.7087 H         1 UNK         0.1335 
     79 H79       -74.5699   28.3487  -71.0157 H         1 UNK         0.0680 
     80 H80       -73.8336   28.4722  -72.5938 H         1 UNK         0.0680 
     81 H81       -71.8276   29.2442  -71.6301 H         1 UNK         0.1032 
     82 H82       -71.5645   30.6901  -70.7023 H         1 UNK         0.1032 
     83 H83       -71.6337   32.0948  -72.7303 H         1 UNK         0.0461 
     84 H84       -68.1288   31.6584  -72.4476 H         1 UNK         0.3453 
     85 H85       -69.5224   32.6290  -72.0503 H         1 UNK         0.3453 
     86 H86       -72.3683   29.6253  -74.1414 H         1 UNK         0.2984 
     87 H87       -73.8378   30.4084  -76.1425 H         1 UNK         0.0554 
     88 H88       -73.3790   31.0629  -78.5020 H         1 UNK         0.0847 
     89 H89       -71.9036   31.8876  -78.0006 H         1 UNK         0.0847 
     90 H90       -73.4680   32.4678  -77.4527 H         1 UNK         0.0847 
     91 H91       -72.7092   28.5372  -76.6035 H         1 UNK         0.3141 
     92 H92       -71.2036   27.3072  -78.0736 H         1 UNK         0.0743 
     93 H93       -68.2974   27.9587  -77.3518 H         1 UNK         0.0784 
     94 H94       -69.0295   28.1688  -78.9366 H         1 UNK         0.0784 
     95 H95       -68.8547   26.5566  -78.2663 H         1 UNK         0.0784 
     96 H96       -69.6108   26.6538  -75.7587 H         1 UNK         0.3213 
     97 H97       -70.5402   24.9594  -74.4368 H         1 UNK         0.0855 
     98 H98       -71.9512   27.1666  -72.8367 H         1 UNK         0.0814 
     99 H99       -70.2316   27.1187  -73.1984 H         1 UNK         0.0814 
    100 H100      -70.9402   25.8965  -72.1559 H         1 UNK         0.0814 
    101 H101      -73.3888   25.3005  -73.6075 H         1 UNK         0.3105 
    102 H102      -74.2857   22.0926  -74.8545 H         1 UNK         0.0547 
    103 H103      -73.6614   21.8967  -72.4703 H         1 UNK         0.0837 
    104 H104      -74.3796   23.4580  -72.1142 H         1 UNK         0.0837 
    105 H105      -75.3953   22.1185  -72.6406 H         1 UNK         0.0837 
    106 H106      -75.8282   23.4820  -75.5374 H         1 UNK         0.3020 
    107 H107      -77.4250   26.3274  -74.2972 H         1 UNK         0.1245 
    108 H108      -75.5738   27.2532  -75.8666 H         1 UNK         0.0781 
    109 H109      -76.0371   26.0423  -77.0191 H         1 UNK         0.0781 
    110 H110      -78.0494   30.0662  -76.3929 H         1 UNK         0.0836 
    111 H111      -76.3589   29.6578  -76.5268 H         1 UNK         0.0836 
    112 H112      -77.9107   24.6030  -76.5481 H         1 UNK         0.3022 
    113 H113      -78.7807   22.3281  -76.1717 H         1 UNK         0.0747 
    114 H114      -80.6991   21.1243  -75.1896 H         1 UNK         0.0793 
    115 H115      -79.4507   21.3813  -73.9816 H         1 UNK         0.0793 
    116 H116      -80.9001   22.3720  -73.9649 H         1 UNK         0.0793 
    117 H117      -81.3624   23.7492  -75.9667 H         1 UNK         0.3047 
    118 H118      -81.0062   25.4404  -79.0191 H         1 UNK         0.0822 
    119 H119      -82.7768   24.0204  -80.0380 H         1 UNK         0.0807 
    120 H120      -82.4142   22.7173  -78.9049 H         1 UNK         0.0807 
    121 H121      -81.2222   23.2077  -80.1006 H         1 UNK         0.0807 
    122 H122      -83.2513   24.4768  -77.3916 H         1 UNK         0.2946 
    123 H123      -83.9283   27.6079  -76.1742 H         1 UNK         0.1144 
    124 H124      -85.2349   25.6975  -77.1152 H         1 UNK         0.0793 
    125 H125      -85.6404   25.9895  -75.4363 H         1 UNK         0.0793 
    126 H126      -84.6185   24.6260  -75.8603 H         1 UNK         0.0793 
    127 H127      -83.1252   27.4806  -74.1079 H         1 UNK         0.2896 
@<TRIPOS>BOND
     1    1    2 1    
     2    1   67 1    
     3    1   68 1    
     4    1   69 1    
     5    2    3 2    
     6    2    4 am   BACKBONE|DICT|INTERRES
     7    4    5 1    
     8    4   70 1    
     9    5    6 1    
    10    5   65 1    
    11    5   71 1    
    12    6    7 1    
    13    6   72 1    
    14    6   73 1    
    15    7    8 1    
    16    8    9 1    
    17    8   74 1    
    18    8   75 1    
    19    9   10 ar   
    20    9   14 ar   
    21   10   11 ar   
    22   10   76 1    
    23   11   12 ar   
    24   11   48 1    
    25   12   13 ar   
    26   12   77 1    
    27   13   14 ar   
    28   13   15 1    
    29   14   78 1    
    30   15   16 1    
    31   15   79 1    
    32   15   80 1    
    33   16   17 1    
    34   17   18 1    
    35   17   81 1    
    36   17   82 1    
    37   18   19 1    
    38   18   22 1    
    39   18   83 1    
    40   19   20 am   BACKBONE|DICT|INTERRES
    41   19   21 2    
    42   20   84 1    
    43   20   85 1    
    44   22   23 am   BACKBONE|DICT|INTERRES
    45   22   86 1    
    46   23   24 2    
    47   23   25 1    
    48   25   26 1    
    49   25   27 1    
    50   25   87 1    
    51   26   88 1    
    52   26   89 1    
    53   26   90 1    
    54   27   28 am   BACKBONE|DICT|INTERRES
    55   27   91 1    
    56   28   29 2    
    57   28   30 1    
    58   30   31 1    
    59   30   32 1    
    60   30   92 1    
    61   31   93 1    
    62   31   94 1    
    63   31   95 1    
    64   32   33 am   BACKBONE|DICT|INTERRES
    65   32   96 1    
    66   33   34 2    
    67   33   35 1    
    68   35   36 1    
    69   35   37 1    
    70   35   97 1    
    71   36   98 1    
    72   36   99 1    
    73   36  100 1    
    74   37   38 am   BACKBONE|DICT|INTERRES
    75   37  101 1    
    76   38   39 2    
    77   38   40 1    
    78   40   41 1    
    79   40   42 1    
    80   40  102 1    
    81   41  103 1    
    82   41  104 1    
    83   41  105 1    
    84   42   43 am   BACKBONE|DICT|INTERRES
    85   42  106 1    
    86   43   44 2    
    87   43   45 1    
    88   45   46 1    
    89   45   49 1    
    90   45  107 1    
    91   46   47 1    
    92   46  108 1    
    93   46  109 1    
    94   47   48 1    
    95   48  110 1    
    96   48  111 1    
    97   49   50 am   BACKBONE|DICT|INTERRES
    98   49  112 1    
    99   50   51 2    
   100   50   52 1    
   101   52   53 1    
   102   52   54 1    
   103   52  113 1    
   104   53  114 1    
   105   53  115 1    
   106   53  116 1    
   107   54   55 am   BACKBONE|DICT|INTERRES
   108   54  117 1    
   109   55   56 2    
   110   55   57 1    
   111   57   58 1    
   112   57   59 1    
   113   57  118 1    
   114   58  119 1    
   115   58  120 1    
   116   58  121 1    
   117   59   60 am   BACKBONE|DICT|INTERRES
   118   59  122 1    
   119   60   61 2    
   120   60   62 1    
   121   62   63 1    
   122   62   64 1    
   123   62  123 1    
   124   63  124 1    
   125   63  125 1    
   126   63  126 1    
   127   64   65 am   BACKBONE|DICT|INTERRES
   128   64  127 1    
   129   65   66 2    
@<TRIPOS>SUBSTRUCTURE
     1 UNK         1 GROUP             0       ****    0 ROOT    
