@<TRIPOS>MOLECULE
3R135
127   129    1
SMALL
USER_CHARGES


@<TRIPOS>ATOM
      1 CA        -84.5581   29.0017  -75.0068 C.3       0 UNK        -0.1998 
      2 C         -83.2986   28.3768  -74.4262 C.2       0 UNK         0.4909 
      3 O         -82.3155   28.2004  -75.1456 O.2       0 UNK        -0.5240 
      4 N         -83.3160   28.0494  -73.1281 N.am      1 UNK        -0.4739 
      5 CA        -82.2171   27.3808  -72.4290 C.3       1 UNK         0.0864 
      6 C6        -82.3085   27.6047  -70.8992 C.3       11 UNK        -0.0881 
      7 S7        -80.7468   27.2476  -70.0184 S.3       11 UNK        -0.2682 
      8 C8        -80.1164   28.9143  -69.6296 C.3       11 UNK         0.0289 
      9 C9        -79.1772   29.4329  -70.7099 C.ar      11 UNK        -0.0687 
     10 C10       -79.6858   29.9021  -71.9242 C.ar      11 UNK        -0.0823 
     11 C11       -78.8280   30.3531  -72.9313 C.ar      11 UNK        -0.0830 
     12 C12       -77.4531   30.4084  -72.6810 C.ar      11 UNK        -0.1021 
     13 C13       -76.9291   29.9507  -71.4691 C.ar      11 UNK        -0.0753 
     14 C14       -77.7957   29.4523  -70.4915 C.ar      11 UNK        -0.0933 
     15 C15       -75.4314   30.0209  -71.2088 C.3       11 UNK         0.0166 
     16 S16       -74.4697   29.1182  -72.4637 S.3       11 UNK        -0.2615 
     17 C17       -72.7714   29.4909  -71.8993 C.3       11 UNK        -0.0865 
     18 CA        -71.9283   28.2282  -71.5891 C.3       10 UNK         0.0862 
     19 C         -72.4103   27.4777  -70.3113 C.2       10 UNK         0.5551 
     20 N         -72.6943   26.1821  -70.3660 N.am      10 UNK        -0.7319 
     21 O         -72.5128   28.0824  -69.2467 O.2       10 UNK        -0.5018 
     22 N         -71.7755   27.3992  -72.7932 N.am      10 UNK        -0.4509 
     23 C         -70.7597   26.5629  -73.0389 C.2       10 UNK         0.4899 
     24 O         -69.8255   26.3679  -72.2615 O.2       10 UNK        -0.4839 
     25 CA        -70.7851   25.8193  -74.3838 C.3       9 UNK         0.0222 
     26 CB        -71.3652   24.4070  -74.2080 C.3       9 UNK        -0.1966 
     27 N         -71.5573   26.5343  -75.4018 N.am      9 UNK        -0.4218 
     28 C         -71.1078   27.5675  -76.1269 C.2       9 UNK         0.5020 
     29 O         -69.9732   28.0381  -76.0209 O.2       9 UNK        -0.5274 
     30 CA        -72.1045   28.1549  -77.1474 C.3       8 UNK         0.0270 
     31 CB        -71.4495   29.1212  -78.1570 C.3       8 UNK        -0.1976 
     32 N         -72.8702   27.1081  -77.8364 N.am      8 UNK        -0.4313 
     33 C         -72.3914   26.1096  -78.5959 C.2       8 UNK         0.5041 
     34 O         -71.2087   25.9939  -78.9200 O.2       8 UNK        -0.5577 
     35 CA        -73.3881   25.0251  -79.0444 C.3       7 UNK         0.0284 
     36 CB        -73.1720   23.7416  -78.2246 C.3       7 UNK        -0.1958 
     37 N         -74.7903   25.4302  -78.9240 N.am      7 UNK        -0.4454 
     38 C         -75.4117   26.2885  -79.7429 C.2       7 UNK         0.5089 
     39 O         -74.8826   26.8059  -80.7269 O.2       7 UNK        -0.5125 
     40 CA        -76.8623   26.6503  -79.3831 C.3       6 UNK         0.0408 
     41 CB        -77.8338   25.5726  -79.8904 C.3       6 UNK        -0.1791 
     42 N         -77.0624   26.8535  -77.9451 N.am      6 UNK        -0.4762 
     43 C         -76.5169   27.8453  -77.2237 C.2       6 UNK         0.5007 
     44 O         -75.7482   28.6879  -77.6870 O.2       6 UNK        -0.5032 
     45 CA        -76.8610   27.8658  -75.7212 C.3       5 UNK         0.0783 
     46 C46       -78.2985   28.3979  -75.4737 C.3       11 UNK        -0.0857 
     47 S47       -78.4146   30.2076  -75.7168 S.3       11 UNK        -0.2512 
     48 C48       -79.4042   30.7644  -74.2833 C.3       11 UNK         0.0225 
     49 N         -76.6557   26.5388  -75.1344 N.am      5 UNK        -0.4615 
     50 C         -75.4554   25.9635  -74.9602 C.2       4 UNK         0.5053 
     51 O         -74.3847   26.5196  -75.2054 O.2       4 UNK        -0.5105 
     52 CA        -75.4264   24.5079  -74.4593 C.3       4 UNK         0.0263 
     53 CB        -75.3217   24.4816  -72.9263 C.3       4 UNK        -0.1981 
     54 N         -76.5786   23.7094  -74.8832 N.am      4 UNK        -0.4224 
     55 C         -76.9363   23.4793  -76.1554 C.2       3 UNK         0.4895 
     56 O         -76.2671   23.8318  -77.1254 O.2       3 UNK        -0.5091 
     57 CA        -78.2969   22.7981  -76.3979 C.3       3 UNK         0.0250 
     58 CB        -78.0983   21.3011  -76.6825 C.3       3 UNK        -0.1996 
     59 N         -79.2812   22.9626  -75.3173 N.am      3 UNK        -0.4254 
     60 C         -79.6897   24.1314  -74.8014 C.2       2 UNK         0.5004 
     61 O         -79.2445   25.2278  -75.1568 O.2       2 UNK        -0.5226 
     62 CA        -80.7273   24.0601  -73.6724 C.3       2 UNK         0.0269 
     63 CB        -80.2219   23.2313  -72.4754 C.3       2 UNK        -0.1926 
     64 N         -81.0057   25.4194  -73.2249 N.am      2 UNK        -0.4687 
     65 C         -82.1814   25.8867  -72.8017 C.2       1 UNK         0.5165 
     66 O         -83.2010   25.2004  -72.6933 O.2       1 UNK        -0.5079 
     67 H67       -84.9453   28.3819  -75.8151 H         1 UNK         0.0900 
     68 H68       -84.3348   29.9887  -75.4109 H         1 UNK         0.0900 
     69 H69       -85.3421   29.1113  -74.2577 H         1 UNK         0.0900 
     70 H70       -84.1635   28.1798  -72.5939 H         1 UNK         0.2959 
     71 H71       -81.2883   27.8290  -72.7841 H         1 UNK         0.1079 
     72 H72       -83.1008   26.9921  -70.4639 H         1 UNK         0.0837 
     73 H73       -82.5976   28.6360  -70.6930 H         1 UNK         0.0837 
     74 H74       -80.9380   29.6153  -69.4776 H         1 UNK         0.0685 
     75 H75       -79.5921   28.8633  -68.6740 H         1 UNK         0.0685 
     76 H76       -80.7536   29.9016  -72.0903 H         1 UNK         0.1434 
     77 H77       -76.7816   30.7847  -73.4404 H         1 UNK         0.1329 
     78 H78       -77.3962   29.0937  -69.5526 H         1 UNK         0.1335 
     79 H79       -75.1261   31.0682  -71.2046 H         1 UNK         0.0680 
     80 H80       -75.1893   29.6187  -70.2235 H         1 UNK         0.0680 
     81 H81       -72.2808   30.0711  -72.6824 H         1 UNK         0.1032 
     82 H82       -72.7962   30.1510  -71.0301 H         1 UNK         0.1032 
     83 H83       -70.9299   28.5884  -71.3330 H         1 UNK         0.0461 
     84 H84       -72.5870   25.6763  -71.2286 H         1 UNK         0.3453 
     85 H85       -72.9985   25.7070  -69.5312 H         1 UNK         0.3453 
     86 H86       -72.5205   27.4752  -73.4716 H         1 UNK         0.2984 
     87 H87       -69.7545   25.7222  -74.7317 H         1 UNK         0.0554 
     88 H88       -70.7709   23.8280  -73.4998 H         1 UNK         0.0847 
     89 H89       -71.3692   23.8586  -75.1503 H         1 UNK         0.0847 
     90 H90       -72.3863   24.4330  -73.8292 H         1 UNK         0.0847 
     91 H91       -72.5403   26.2894  -75.4970 H         1 UNK         0.3141 
     92 H92       -72.8305   28.7270  -76.5672 H         1 UNK         0.0743 
     93 H93       -70.9891   29.9669  -77.6449 H         1 UNK         0.0784 
     94 H94       -70.6695   28.6315  -78.7408 H         1 UNK         0.0784 
     95 H95       -72.1859   29.5250  -78.8518 H         1 UNK         0.0784 
     96 H96       -73.8610   27.0995  -77.6310 H         1 UNK         0.3213 
     97 H97       -73.1819   24.8029  -80.0937 H         1 UNK         0.0855 
     98 H98       -72.1466   23.3822  -78.3210 H         1 UNK         0.0814 
     99 H99       -73.8296   22.9399  -78.5612 H         1 UNK         0.0814 
    100 H100      -73.3618   23.9059  -77.1632 H         1 UNK         0.0814 
    101 H101      -75.3316   24.9893  -78.1808 H         1 UNK         0.3105 
    102 H102      -77.1046   27.5886  -79.8866 H         1 UNK         0.0547 
    103 H103      -77.7249   25.4265  -80.9659 H         1 UNK         0.0837 
    104 H104      -77.6569   24.6083  -79.4126 H         1 UNK         0.0837 
    105 H105      -78.8708   25.8536  -79.7067 H         1 UNK         0.0837 
    106 H106      -77.6466   26.1818  -77.4672 H         1 UNK         0.3020 
    107 H107      -76.1567   28.5426  -75.2302 H         1 UNK         0.1245 
    108 H108      -78.6038   28.1572  -74.4550 H         1 UNK         0.0781 
    109 H109      -79.0290   27.9037  -76.1173 H         1 UNK         0.0781 
    110 H110      -80.4163   30.3730  -74.4013 H         1 UNK         0.0836 
    111 H111      -79.4871   31.8514  -74.3136 H         1 UNK         0.0836 
    112 H112      -77.4966   25.9961  -74.9579 H         1 UNK         0.3022 
    113 H113      -74.5346   24.0375  -74.8771 H         1 UNK         0.0747 
    114 H114      -74.4816   25.0848  -72.5801 H         1 UNK         0.0793 
    115 H115      -76.2201   24.8813  -72.4538 H         1 UNK         0.0793 
    116 H116      -75.1674   23.4683  -72.5551 H         1 UNK         0.0793 
    117 H117      -77.1920   23.3767  -74.1545 H         1 UNK         0.3047 
    118 H118      -78.7237   23.2603  -77.2904 H         1 UNK         0.0822 
    119 H119      -79.0333   20.8241  -76.9768 H         1 UNK         0.0807 
    120 H120      -77.7093   20.7725  -75.8113 H         1 UNK         0.0807 
    121 H121      -77.3901   21.1491  -77.4987 H         1 UNK         0.0807 
    122 H122      -79.6922   22.1117  -74.9606 H         1 UNK         0.2946 
    123 H123      -81.6350   23.6098  -74.0811 H         1 UNK         0.1144 
    124 H124      -80.9492   23.2299  -71.6631 H         1 UNK         0.0793 
    125 H125      -79.2852   23.6258  -72.0791 H         1 UNK         0.0793 
    126 H126      -80.0519   22.1898  -72.7497 H         1 UNK         0.0793 
    127 H127      -80.2418   26.0647  -73.3802 H         1 UNK         0.2896 
@<TRIPOS>BOND
     1    1    2 1    
     2    1   67 1    
     3    1   68 1    
     4    1   69 1    
     5    2    3 2    
     6    2    4 am   BACKBONE|DICT|INTERRES
     7    4    5 1    
     8    4   70 1    
     9    5    6 1    
    10    5   65 1    
    11    5   71 1    
    12    6    7 1    
    13    6   72 1    
    14    6   73 1    
    15    7    8 1    
    16    8    9 1    
    17    8   74 1    
    18    8   75 1    
    19    9   10 ar   
    20    9   14 ar   
    21   10   11 ar   
    22   10   76 1    
    23   11   12 ar   
    24   11   48 1    
    25   12   13 ar   
    26   12   77 1    
    27   13   14 ar   
    28   13   15 1    
    29   14   78 1    
    30   15   16 1    
    31   15   79 1    
    32   15   80 1    
    33   16   17 1    
    34   17   18 1    
    35   17   81 1    
    36   17   82 1    
    37   18   19 1    
    38   18   22 1    
    39   18   83 1    
    40   19   20 am   BACKBONE|DICT|INTERRES
    41   19   21 2    
    42   20   84 1    
    43   20   85 1    
    44   22   23 am   BACKBONE|DICT|INTERRES
    45   22   86 1    
    46   23   24 2    
    47   23   25 1    
    48   25   26 1    
    49   25   27 1    
    50   25   87 1    
    51   26   88 1    
    52   26   89 1    
    53   26   90 1    
    54   27   28 am   BACKBONE|DICT|INTERRES
    55   27   91 1    
    56   28   29 2    
    57   28   30 1    
    58   30   31 1    
    59   30   32 1    
    60   30   92 1    
    61   31   93 1    
    62   31   94 1    
    63   31   95 1    
    64   32   33 am   BACKBONE|DICT|INTERRES
    65   32   96 1    
    66   33   34 2    
    67   33   35 1    
    68   35   36 1    
    69   35   37 1    
    70   35   97 1    
    71   36   98 1    
    72   36   99 1    
    73   36  100 1    
    74   37   38 am   BACKBONE|DICT|INTERRES
    75   37  101 1    
    76   38   39 2    
    77   38   40 1    
    78   40   41 1    
    79   40   42 1    
    80   40  102 1    
    81   41  103 1    
    82   41  104 1    
    83   41  105 1    
    84   42   43 am   BACKBONE|DICT|INTERRES
    85   42  106 1    
    86   43   44 2    
    87   43   45 1    
    88   45   46 1    
    89   45   49 1    
    90   45  107 1    
    91   46   47 1    
    92   46  108 1    
    93   46  109 1    
    94   47   48 1    
    95   48  110 1    
    96   48  111 1    
    97   49   50 am   BACKBONE|DICT|INTERRES
    98   49  112 1    
    99   50   51 2    
   100   50   52 1    
   101   52   53 1    
   102   52   54 1    
   103   52  113 1    
   104   53  114 1    
   105   53  115 1    
   106   53  116 1    
   107   54   55 am   BACKBONE|DICT|INTERRES
   108   54  117 1    
   109   55   56 2    
   110   55   57 1    
   111   57   58 1    
   112   57   59 1    
   113   57  118 1    
   114   58  119 1    
   115   58  120 1    
   116   58  121 1    
   117   59   60 am   BACKBONE|DICT|INTERRES
   118   59  122 1    
   119   60   61 2    
   120   60   62 1    
   121   62   63 1    
   122   62   64 1    
   123   62  123 1    
   124   63  124 1    
   125   63  125 1    
   126   63  126 1    
   127   64   65 am   BACKBONE|DICT|INTERRES
   128   64  127 1    
   129   65   66 2    
@<TRIPOS>SUBSTRUCTURE
     1 UNK         1 GROUP             0       ****    0 ROOT    
