@<TRIPOS>MOLECULE
3R135
127   129    1
SMALL
USER_CHARGES


@<TRIPOS>ATOM
      1 CA        -76.0087   27.2074  -71.1898 C.3       0 UNK        -0.1998 
      2 C         -77.1304   26.4031  -70.5511 C.2       0 UNK         0.4909 
      3 O         -77.0090   26.0001  -69.3939 O.2       0 UNK        -0.5240 
      4 N         -78.2159   26.1620  -71.2931 N.am      1 UNK        -0.4739 
      5 CA        -79.3555   25.3509  -70.8661 C.3       1 UNK         0.0864 
      6 C6        -80.3214   26.0924  -69.8952 C.3       11 UNK        -0.0881 
      7 S7        -81.2656   27.4851  -70.6102 S.3       11 UNK        -0.2682 
      8 C8        -80.1339   28.9026  -70.3759 C.3       11 UNK         0.0289 
      9 C9        -79.6045   29.5495  -71.6598 C.ar      11 UNK        -0.0687 
     10 C10       -80.0049   29.1471  -72.9434 C.ar      11 UNK        -0.0823 
     11 C11       -79.5008   29.7849  -74.0797 C.ar      11 UNK        -0.0830 
     12 C12       -78.6086   30.8483  -73.9353 C.ar      11 UNK        -0.1021 
     13 C13       -78.1846   31.2520  -72.6686 C.ar      11 UNK        -0.0753 
     14 C14       -78.6867   30.6001  -71.5376 C.ar      11 UNK        -0.0933 
     15 C15       -77.1873   32.3951  -72.5331 C.3       11 UNK         0.0166 
     16 S16       -75.6037   32.0269  -73.3588 S.3       11 UNK        -0.2615 
     17 C17       -74.9758   30.6698  -72.3170 C.3       11 UNK        -0.0865 
     18 CA        -73.4589   30.4174  -72.5317 C.3       10 UNK         0.0862 
     19 C         -72.8529   29.5093  -71.4186 C.2       10 UNK         0.5551 
     20 N         -72.0058   28.5347  -71.7275 N.am      10 UNK        -0.7319 
     21 O         -73.1496   29.6974  -70.2416 O.2       10 UNK        -0.5018 
     22 N         -73.1826   29.9406  -73.8981 N.am      10 UNK        -0.4509 
     23 C         -72.1088   30.2644  -74.6274 C.2       10 UNK         0.4899 
     24 O         -71.2553   31.0792  -74.2721 O.2       10 UNK        -0.4839 
     25 CA        -71.9604   29.5131  -75.9674 C.3       9 UNK         0.0222 
     26 CB        -70.6229   29.8100  -76.6779 C.3       9 UNK        -0.1966 
     27 N         -72.1591   28.0607  -75.8374 N.am      9 UNK        -0.4218 
     28 C         -71.4910   27.2272  -75.0222 C.2       9 UNK         0.5020 
     29 O         -70.6237   27.5964  -74.2296 O.2       9 UNK        -0.5274 
     30 CA        -71.8593   25.7340  -75.0497 C.3       8 UNK         0.0270 
     31 CB        -72.7758   25.3843  -73.8646 C.3       8 UNK        -0.1976 
     32 N         -72.4791   25.2770  -76.2961 N.am      8 UNK        -0.4313 
     33 C         -71.8292   25.1189  -77.4586 C.2       8 UNK         0.5041 
     34 O         -70.6487   25.4245  -77.6301 O.2       8 UNK        -0.5577 
     35 CA        -72.6202   24.5001  -78.6211 C.3       7 UNK         0.0284 
     36 CB        -72.7236   22.9751  -78.4499 C.3       7 UNK        -0.1958 
     37 N         -73.9646   25.0692  -78.7075 N.am      7 UNK        -0.4454 
     38 C         -74.3412   26.0122  -79.5819 C.2       7 UNK         0.5089 
     39 O         -73.6155   26.4524  -80.4742 O.2       7 UNK        -0.5125 
     40 CA        -75.7689   26.5754  -79.4340 C.3       6 UNK         0.0408 
     41 CB        -76.7393   25.8256  -80.3597 C.3       6 UNK        -0.1791 
     42 N         -76.2822   26.5292  -78.0621 N.am      6 UNK        -0.4762 
     43 C         -75.7426   27.1807  -77.0205 C.2       6 UNK         0.5007 
     44 O         -74.7730   27.9332  -77.1127 O.2       6 UNK        -0.5032 
     45 CA        -76.3289   26.9002  -75.6228 C.3       5 UNK         0.0783 
     46 C46       -77.3516   27.9857  -75.2157 C.3       11 UNK        -0.0857 
     47 S47       -79.0342   27.7266  -75.8906 S.3       11 UNK        -0.2512 
     48 C48       -79.8710   29.2926  -75.4712 C.3       11 UNK         0.0225 
     49 N         -76.8751   25.5501  -75.4585 N.am      5 UNK        -0.4615 
     50 C         -76.2605   24.3907  -75.7220 C.2       4 UNK         0.5053 
     51 O         -75.0825   24.3059  -76.0686 O.2       4 UNK        -0.5105 
     52 CA        -77.1195   23.1193  -75.6435 C.3       4 UNK         0.0263 
     53 CB        -76.8174   22.3474  -74.3498 C.3       4 UNK        -0.1981 
     54 N         -78.5600   23.3934  -75.7378 N.am      4 UNK        -0.4224 
     55 C         -79.1852   23.7992  -76.8572 C.2       3 UNK         0.4895 
     56 O         -78.5934   23.9955  -77.9197 O.2       3 UNK        -0.5091 
     57 CA        -80.7073   24.0362  -76.8000 C.3       3 UNK         0.0250 
     58 CB        -81.4297   23.2280  -77.8927 C.3       3 UNK        -0.1996 
     59 N         -81.2696   23.6740  -75.4975 N.am      3 UNK        -0.4254 
     60 C         -81.7765   24.5319  -74.6031 C.2       2 UNK         0.5004 
     61 O         -81.9436   25.7337  -74.8141 O.2       2 UNK        -0.5226 
     62 CA        -82.1299   23.9628  -73.2125 C.3       2 UNK         0.0269 
     63 CB        -82.0406   22.4218  -73.1132 C.3       2 UNK        -0.1926 
     64 N         -81.3230   24.5768  -72.1488 N.am      2 UNK        -0.4687 
     65 C         -79.9859   24.6870  -72.1068 C.2       1 UNK         0.5165 
     66 O         -79.2411   24.2688  -72.9976 O.2       1 UNK        -0.5079 
     67 H67       -76.1950   27.3987  -72.2445 H         1 UNK         0.0900 
     68 H68       -75.9008   28.1629  -70.6775 H         1 UNK         0.0900 
     69 H69       -75.0646   26.6692  -71.1072 H         1 UNK         0.0900 
     70 H70       -78.2625   26.4740  -72.2528 H         1 UNK         0.2959 
     71 H71       -78.9489   24.5044  -70.3077 H         1 UNK         0.1079 
     72 H72       -81.0412   25.3830  -69.4835 H         1 UNK         0.0837 
     73 H73       -79.7676   26.4503  -69.0262 H         1 UNK         0.0837 
     74 H74       -80.6689   29.6629  -69.8054 H         1 UNK         0.0685 
     75 H75       -79.2868   28.6008  -69.7589 H         1 UNK         0.0685 
     76 H76       -80.6951   28.3271  -73.0815 H         1 UNK         0.1434 
     77 H77       -78.2120   31.3432  -74.8116 H         1 UNK         0.1329 
     78 H78       -78.3666   30.9160  -70.5538 H         1 UNK         0.1335 
     79 H79       -77.6165   33.2922  -72.9813 H         1 UNK         0.0680 
     80 H80       -77.0016   32.6342  -71.4848 H         1 UNK         0.0680 
     81 H81       -75.5537   29.7709  -72.5314 H         1 UNK         0.1032 
     82 H82       -75.1830   30.9280  -71.2767 H         1 UNK         0.1032 
     83 H83       -72.9604   31.3792  -72.3971 H         1 UNK         0.0461 
     84 H84       -71.6251   27.9712  -70.9845 H         1 UNK         0.3453 
     85 H85       -71.6773   28.3983  -72.6758 H         1 UNK         0.3453 
     86 H86       -73.8243   29.2582  -74.2703 H         1 UNK         0.2984 
     87 H87       -72.7623   29.8766  -76.6116 H         1 UNK         0.0554 
     88 H88       -70.5123   30.8770  -76.8748 H         1 UNK         0.0847 
     89 H89       -70.5616   29.2959  -77.6371 H         1 UNK         0.0847 
     90 H90       -69.7677   29.4994  -76.0766 H         1 UNK         0.0847 
     91 H91       -72.9004   27.6803  -76.4178 H         1 UNK         0.3141 
     92 H92       -70.9285   25.1765  -74.9238 H         1 UNK         0.0743 
     93 H93       -73.7249   25.9155  -73.9111 H         1 UNK         0.0784 
     94 H94       -72.9926   24.3162  -73.8322 H         1 UNK         0.0784 
     95 H95       -72.3047   25.6459  -72.9160 H         1 UNK         0.0784 
     96 H96       -73.4412   24.9467  -76.2276 H         1 UNK         0.3213 
     97 H97       -72.0667   24.6966  -79.5420 H         1 UNK         0.0855 
     98 H98       -73.2710   22.7013  -77.5470 H         1 UNK         0.0814 
     99 H99       -71.7333   22.5227  -78.3813 H         1 UNK         0.0814 
    100 H100      -73.2304   22.5166  -79.2991 H         1 UNK         0.0814 
    101 H101      -74.6210   24.7894  -77.9872 H         1 UNK         0.3105 
    102 H102      -75.7423   27.6227  -79.7419 H         1 UNK         0.0547 
    103 H103      -76.4012   25.8658  -81.3961 H         1 UNK         0.0837 
    104 H104      -76.8268   24.7734  -80.0851 H         1 UNK         0.0837 
    105 H105      -77.7373   26.2630  -80.3280 H         1 UNK         0.0837 
    106 H106      -77.0729   25.9200  -77.8922 H         1 UNK         0.3020 
    107 H107      -75.4869   26.9753  -74.9344 H         1 UNK         0.1245 
    108 H108      -76.9986   28.9829  -75.4880 H         1 UNK         0.0781 
    109 H109      -77.4378   27.9937  -74.1295 H         1 UNK         0.0781 
    110 H110      -80.9504   29.1478  -75.5362 H         1 UNK         0.0836 
    111 H111      -79.6165   30.0405  -76.2238 H         1 UNK         0.0836 
    112 H112      -77.8502   25.5100  -75.1969 H         1 UNK         0.3022 
    113 H113      -76.8406   22.4871  -76.4892 H         1 UNK         0.0747 
    114 H114      -77.4057   21.4321  -74.2852 H         1 UNK         0.0793 
    115 H115      -75.7658   22.0602  -74.3069 H         1 UNK         0.0793 
    116 H116      -77.0245   22.9447  -73.4615 H         1 UNK         0.0793 
    117 H117      -79.0749   23.3759  -74.8637 H         1 UNK         0.3047 
    118 H118      -80.8641   25.0984  -77.0001 H         1 UNK         0.0822 
    119 H119      -82.5035   23.4155  -77.8778 H         1 UNK         0.0807 
    120 H120      -81.2744   22.1552  -77.7715 H         1 UNK         0.0807 
    121 H121      -81.0701   23.5001  -78.8860 H         1 UNK         0.0807 
    122 H122      -81.1834   22.7039  -75.2284 H         1 UNK         0.2946 
    123 H123      -83.1670   24.2485  -73.0279 H         1 UNK         0.1144 
    124 H124      -82.3817   22.0771  -72.1368 H         1 UNK         0.0793 
    125 H125      -81.0222   22.0551  -73.2481 H         1 UNK         0.0793 
    126 H126      -82.6761   21.9373  -73.8559 H         1 UNK         0.0793 
    127 H127      -81.8473   25.0207  -71.4070 H         1 UNK         0.2896 
@<TRIPOS>BOND
     1    1    2 1    
     2    1   67 1    
     3    1   68 1    
     4    1   69 1    
     5    2    3 2    
     6    2    4 am   BACKBONE|DICT|INTERRES
     7    4    5 1    
     8    4   70 1    
     9    5    6 1    
    10    5   65 1    
    11    5   71 1    
    12    6    7 1    
    13    6   72 1    
    14    6   73 1    
    15    7    8 1    
    16    8    9 1    
    17    8   74 1    
    18    8   75 1    
    19    9   10 ar   
    20    9   14 ar   
    21   10   11 ar   
    22   10   76 1    
    23   11   12 ar   
    24   11   48 1    
    25   12   13 ar   
    26   12   77 1    
    27   13   14 ar   
    28   13   15 1    
    29   14   78 1    
    30   15   16 1    
    31   15   79 1    
    32   15   80 1    
    33   16   17 1    
    34   17   18 1    
    35   17   81 1    
    36   17   82 1    
    37   18   19 1    
    38   18   22 1    
    39   18   83 1    
    40   19   20 am   BACKBONE|DICT|INTERRES
    41   19   21 2    
    42   20   84 1    
    43   20   85 1    
    44   22   23 am   BACKBONE|DICT|INTERRES
    45   22   86 1    
    46   23   24 2    
    47   23   25 1    
    48   25   26 1    
    49   25   27 1    
    50   25   87 1    
    51   26   88 1    
    52   26   89 1    
    53   26   90 1    
    54   27   28 am   BACKBONE|DICT|INTERRES
    55   27   91 1    
    56   28   29 2    
    57   28   30 1    
    58   30   31 1    
    59   30   32 1    
    60   30   92 1    
    61   31   93 1    
    62   31   94 1    
    63   31   95 1    
    64   32   33 am   BACKBONE|DICT|INTERRES
    65   32   96 1    
    66   33   34 2    
    67   33   35 1    
    68   35   36 1    
    69   35   37 1    
    70   35   97 1    
    71   36   98 1    
    72   36   99 1    
    73   36  100 1    
    74   37   38 am   BACKBONE|DICT|INTERRES
    75   37  101 1    
    76   38   39 2    
    77   38   40 1    
    78   40   41 1    
    79   40   42 1    
    80   40  102 1    
    81   41  103 1    
    82   41  104 1    
    83   41  105 1    
    84   42   43 am   BACKBONE|DICT|INTERRES
    85   42  106 1    
    86   43   44 2    
    87   43   45 1    
    88   45   46 1    
    89   45   49 1    
    90   45  107 1    
    91   46   47 1    
    92   46  108 1    
    93   46  109 1    
    94   47   48 1    
    95   48  110 1    
    96   48  111 1    
    97   49   50 am   BACKBONE|DICT|INTERRES
    98   49  112 1    
    99   50   51 2    
   100   50   52 1    
   101   52   53 1    
   102   52   54 1    
   103   52  113 1    
   104   53  114 1    
   105   53  115 1    
   106   53  116 1    
   107   54   55 am   BACKBONE|DICT|INTERRES
   108   54  117 1    
   109   55   56 2    
   110   55   57 1    
   111   57   58 1    
   112   57   59 1    
   113   57  118 1    
   114   58  119 1    
   115   58  120 1    
   116   58  121 1    
   117   59   60 am   BACKBONE|DICT|INTERRES
   118   59  122 1    
   119   60   61 2    
   120   60   62 1    
   121   62   63 1    
   122   62   64 1    
   123   62  123 1    
   124   63  124 1    
   125   63  125 1    
   126   63  126 1    
   127   64   65 am   BACKBONE|DICT|INTERRES
   128   64  127 1    
   129   65   66 2    
@<TRIPOS>SUBSTRUCTURE
     1 UNK         1 GROUP             0       ****    0 ROOT    
