@<TRIPOS>MOLECULE
3R135
127   129    1
SMALL
USER_CHARGES


@<TRIPOS>ATOM
      1 CA        -79.1234   25.6030  -71.1494 C.3       0 UNK        -0.1998 
      2 C         -80.2198   25.3300  -70.1265 C.2       0 UNK         0.4909 
      3 O         -79.9363   24.7105  -69.1033 O.2       0 UNK        -0.5240 
      4 N         -81.4805   25.7414  -70.3356 N.am      1 UNK        -0.4739 
      5 CA        -82.0757   26.4880  -71.4621 C.3       1 UNK         0.0864 
      6 C6        -81.3749   27.8299  -71.8201 C.3       11 UNK        -0.0881 
      7 S7        -81.0824   28.9311  -70.3924 S.3       11 UNK        -0.2682 
      8 C8        -80.8036   30.5337  -71.2187 C.3       11 UNK         0.0289 
      9 C9        -79.5502   30.5171  -72.0834 C.ar      11 UNK        -0.0687 
     10 C10       -79.6378   30.1586  -73.4323 C.ar      11 UNK        -0.0823 
     11 C11       -78.4864   30.0681  -74.2170 C.ar      11 UNK        -0.0830 
     12 C12       -77.2513   30.4194  -73.6685 C.ar      11 UNK        -0.1021 
     13 C13       -77.1457   30.7633  -72.3188 C.ar      11 UNK        -0.0753 
     14 C14       -78.3001   30.8178  -71.5297 C.ar      11 UNK        -0.0933 
     15 C15       -75.7703   31.0123  -71.7190 C.3       11 UNK         0.0166 
     16 S16       -74.7709   29.4883  -71.7643 S.3       11 UNK        -0.2615 
     17 C17       -73.1353   30.1055  -71.2449 C.3       11 UNK        -0.0865 
     18 CA        -72.3368   30.8041  -72.3791 C.3       10 UNK         0.0862 
     19 C         -70.9380   31.2350  -71.8568 C.2       10 UNK         0.5551 
     20 N         -70.7977   32.4744  -71.4066 N.am      10 UNK        -0.7319 
     21 O         -70.0001   30.4419  -71.8081 O.2       10 UNK        -0.5018 
     22 N         -72.2800   29.9863  -73.6021 N.am      10 UNK        -0.4509 
     23 C         -71.7484   30.3679  -74.7715 C.2       10 UNK         0.4899 
     24 O         -71.2385   31.4740  -74.9582 O.2       10 UNK        -0.4839 
     25 CA        -71.8502   29.3821  -75.9543 C.3       9 UNK         0.0222 
     26 CB        -70.6469   29.4796  -76.9162 C.3       9 UNK        -0.1966 
     27 N         -72.1087   27.9874  -75.5766 N.am      9 UNK        -0.4218 
     28 C         -71.3023   27.1495  -74.9068 C.2       9 UNK         0.5020 
     29 O         -70.2055   27.4613  -74.4426 O.2       9 UNK        -0.5274 
     30 CA        -71.8081   25.7050  -74.7377 C.3       8 UNK         0.0270 
     31 CB        -72.7986   25.6142  -73.5652 C.3       8 UNK        -0.1976 
     32 N         -72.4253   25.1722  -75.9584 N.am      8 UNK        -0.4313 
     33 C         -71.7640   24.9350  -77.1028 C.2       8 UNK         0.5041 
     34 O         -70.5476   25.0756  -77.2348 O.2       8 UNK        -0.5577 
     35 CA        -72.5960   24.4741  -78.3099 C.3       7 UNK         0.0284 
     36 CB        -72.7896   22.9486  -78.2948 C.3       7 UNK        -0.1958 
     37 N         -73.8977   25.1424  -78.3488 N.am      7 UNK        -0.4454 
     38 C         -74.1005   26.3661  -78.8594 C.2       7 UNK         0.5089 
     39 O         -73.2310   27.0208  -79.4347 O.2       7 UNK        -0.5125 
     40 CA        -75.5050   26.9752  -78.6899 C.3       6 UNK         0.0408 
     41 CB        -76.3774   26.6676  -79.9163 C.3       6 UNK        -0.1791 
     42 N         -76.1918   26.5147  -77.4820 N.am      6 UNK        -0.4762 
     43 C         -75.8045   26.7994  -76.2287 C.2       6 UNK         0.5007 
     44 O         -74.8486   27.5264  -75.9605 O.2       6 UNK        -0.5032 
     45 CA        -76.5696   26.1104  -75.0785 C.3       5 UNK         0.0783 
     46 C46       -77.6266   27.0397  -74.4451 C.3       11 UNK        -0.0857 
     47 S47       -78.9137   27.6915  -75.5808 S.3       11 UNK        -0.2512 
     48 C48       -78.5551   29.4842  -75.6206 C.3       11 UNK         0.0225 
     49 N         -77.1230   24.8026  -75.4360 N.am      5 UNK        -0.4615 
     50 C         -76.4032   23.7668  -75.8939 C.2       4 UNK         0.5053 
     51 O         -75.1753   23.7968  -75.9932 O.2       4 UNK        -0.5105 
     52 CA        -77.1611   22.5102  -76.3678 C.3       4 UNK         0.0263 
     53 CB        -77.0135   21.3802  -75.3371 C.3       4 UNK        -0.1981 
     54 N         -78.5862   22.7337  -76.6326 N.am      4 UNK        -0.4224 
     55 C         -79.0917   23.6062  -77.5170 C.2       3 UNK         0.4895 
     56 O         -78.4015   24.2419  -78.3156 O.2       3 UNK        -0.5091 
     57 CA        -80.6115   23.8619  -77.4705 C.3       3 UNK         0.0250 
     58 CB        -81.3031   23.1682  -78.6556 C.3       3 UNK        -0.1996 
     59 N         -81.2982   23.4807  -76.2245 N.am      3 UNK        -0.4254 
     60 C         -80.9985   23.9021  -74.9859 C.2       2 UNK         0.5004 
     61 O         -79.9998   24.5697  -74.7090 O.2       2 UNK        -0.5226 
     62 CA        -81.9461   23.4436  -73.8605 C.3       2 UNK         0.0269 
     63 CB        -81.5605   22.0332  -73.3842 C.3       2 UNK        -0.1926 
     64 N         -81.9237   24.3507  -72.7081 N.am      2 UNK        -0.4687 
     65 C         -82.3228   25.6314  -72.7269 C.2       1 UNK         0.5165 
     66 O         -82.8899   26.1426  -73.6942 O.2       1 UNK        -0.5079 
     67 H67       -78.2840   24.9252  -70.9965 H         1 UNK         0.0900 
     68 H68       -79.4759   25.4536  -72.1667 H         1 UNK         0.0900 
     69 H69       -78.7511   26.6218  -71.0449 H         1 UNK         0.0900 
     70 H70       -82.1512   25.5158  -69.6136 H         1 UNK         0.2959 
     71 H71       -83.0766   26.7487  -71.1137 H         1 UNK         0.1079 
     72 H72       -80.4283   27.6578  -72.3324 H         1 UNK         0.0837 
     73 H73       -81.9939   28.3786  -72.5323 H         1 UNK         0.0837 
     74 H74       -80.7167   31.3115  -70.4585 H         1 UNK         0.0685 
     75 H75       -81.6776   30.7919  -71.8187 H         1 UNK         0.0685 
     76 H76       -80.5936   29.8859  -73.8581 H         1 UNK         0.1434 
     77 H77       -76.3537   30.3402  -74.2676 H         1 UNK         0.1329 
     78 H78       -78.2254   31.0680  -70.4802 H         1 UNK         0.1335 
     79 H79       -75.8486   31.3643  -70.6893 H         1 UNK         0.0680 
     80 H80       -75.2720   31.7992  -72.2864 H         1 UNK         0.0680 
     81 H81       -72.5725   29.2528  -70.8595 H         1 UNK         0.1032 
     82 H82       -73.2692   30.7817  -70.3981 H         1 UNK         0.1032 
     83 H83       -72.8788   31.7113  -72.6529 H         1 UNK         0.0461 
     84 H84       -71.5634   33.1298  -71.4330 H         1 UNK         0.3453 
     85 H85       -69.9023   32.7663  -71.0466 H         1 UNK         0.3453 
     86 H86       -72.6880   29.0664  -73.5374 H         1 UNK         0.2984 
     87 H87       -72.7338   29.6925  -76.5140 H         1 UNK         0.0554 
     88 H88       -70.5555   30.4837  -77.3321 H         1 UNK         0.0847 
     89 H89       -70.7551   28.7924  -77.7557 H         1 UNK         0.0847 
     90 H90       -69.7070   29.2505  -76.4132 H         1 UNK         0.0847 
     91 H91       -73.0339   27.6478  -75.8376 H         1 UNK         0.3141 
     92 H92       -70.9476   25.0745  -74.5036 H         1 UNK         0.0743 
     93 H93       -72.3086   25.8763  -72.6265 H         1 UNK         0.0784 
     94 H94       -73.6378   26.2980  -73.6889 H         1 UNK         0.0784 
     95 H95       -73.1960   24.6051  -73.4527 H         1 UNK         0.0784 
     96 H96       -73.4148   24.9544  -75.9248 H         1 UNK         0.3213 
     97 H97       -72.0400   24.7295  -79.2150 H         1 UNK         0.0855 
     98 H98       -73.3624   22.6128  -79.1593 H         1 UNK         0.0814 
     99 H99       -71.8266   22.4371  -78.3265 H         1 UNK         0.0814 
    100 H100      -73.3058   22.6080  -77.3972 H         1 UNK         0.0814 
    101 H101      -74.6543   24.6913  -77.8492 H         1 UNK         0.3105 
    102 H102      -75.3890   28.0586  -78.6163 H         1 UNK         0.0547 
    103 H103      -76.5442   25.5961  -80.0346 H         1 UNK         0.0837 
    104 H104      -75.9059   27.0280  -80.8316 H         1 UNK         0.0837 
    105 H105      -77.3515   27.1510  -79.8418 H         1 UNK         0.0837 
    106 H106      -76.9865   25.8989  -77.6134 H         1 UNK         0.3020 
    107 H107      -75.8283   25.9072  -74.3043 H         1 UNK         0.1245 
    108 H108      -77.1065   27.8497  -73.9401 H         1 UNK         0.0781 
    109 H109      -78.1416   26.5075  -73.6487 H         1 UNK         0.0781 
    110 H110      -79.3318   29.9935  -76.1925 H         1 UNK         0.0836 
    111 H111      -77.6187   29.6470  -76.1571 H         1 UNK         0.0836 
    112 H112      -78.1319   24.7083  -75.3479 H         1 UNK         0.3022 
    113 H113      -76.6976   22.1894  -77.3029 H         1 UNK         0.0747 
    114 H114      -77.4802   21.6389  -74.3857 H         1 UNK         0.0793 
    115 H115      -77.4653   20.4545  -75.6940 H         1 UNK         0.0793 
    116 H116      -75.9618   21.1686  -75.1376 H         1 UNK         0.0793 
    117 H117      -79.2355   22.2742  -76.0117 H         1 UNK         0.3047 
    118 H118      -80.7436   24.9401  -77.5835 H         1 UNK         0.0822 
    119 H119      -82.3558   23.4442  -78.7200 H         1 UNK         0.0807 
    120 H120      -81.2429   22.0819  -78.5777 H         1 UNK         0.0807 
    121 H121      -80.8396   23.4530  -79.6015 H         1 UNK         0.0807 
    122 H122      -82.1184   22.9025  -76.3408 H         1 UNK         0.2946 
    123 H123      -82.9654   23.4237  -74.2530 H         1 UNK         0.1144 
    124 H124      -82.2395   21.6764  -72.6094 H         1 UNK         0.0793 
    125 H125      -80.5473   22.0072  -72.9805 H         1 UNK         0.0793 
    126 H126      -81.6035   21.3141  -74.2033 H         1 UNK         0.0793 
    127 H127      -81.4842   24.0054  -71.8679 H         1 UNK         0.2896 
@<TRIPOS>BOND
     1    1    2 1    
     2    1   67 1    
     3    1   68 1    
     4    1   69 1    
     5    2    3 2    
     6    2    4 am   BACKBONE|DICT|INTERRES
     7    4    5 1    
     8    4   70 1    
     9    5    6 1    
    10    5   65 1    
    11    5   71 1    
    12    6    7 1    
    13    6   72 1    
    14    6   73 1    
    15    7    8 1    
    16    8    9 1    
    17    8   74 1    
    18    8   75 1    
    19    9   10 ar   
    20    9   14 ar   
    21   10   11 ar   
    22   10   76 1    
    23   11   12 ar   
    24   11   48 1    
    25   12   13 ar   
    26   12   77 1    
    27   13   14 ar   
    28   13   15 1    
    29   14   78 1    
    30   15   16 1    
    31   15   79 1    
    32   15   80 1    
    33   16   17 1    
    34   17   18 1    
    35   17   81 1    
    36   17   82 1    
    37   18   19 1    
    38   18   22 1    
    39   18   83 1    
    40   19   20 am   BACKBONE|DICT|INTERRES
    41   19   21 2    
    42   20   84 1    
    43   20   85 1    
    44   22   23 am   BACKBONE|DICT|INTERRES
    45   22   86 1    
    46   23   24 2    
    47   23   25 1    
    48   25   26 1    
    49   25   27 1    
    50   25   87 1    
    51   26   88 1    
    52   26   89 1    
    53   26   90 1    
    54   27   28 am   BACKBONE|DICT|INTERRES
    55   27   91 1    
    56   28   29 2    
    57   28   30 1    
    58   30   31 1    
    59   30   32 1    
    60   30   92 1    
    61   31   93 1    
    62   31   94 1    
    63   31   95 1    
    64   32   33 am   BACKBONE|DICT|INTERRES
    65   32   96 1    
    66   33   34 2    
    67   33   35 1    
    68   35   36 1    
    69   35   37 1    
    70   35   97 1    
    71   36   98 1    
    72   36   99 1    
    73   36  100 1    
    74   37   38 am   BACKBONE|DICT|INTERRES
    75   37  101 1    
    76   38   39 2    
    77   38   40 1    
    78   40   41 1    
    79   40   42 1    
    80   40  102 1    
    81   41  103 1    
    82   41  104 1    
    83   41  105 1    
    84   42   43 am   BACKBONE|DICT|INTERRES
    85   42  106 1    
    86   43   44 2    
    87   43   45 1    
    88   45   46 1    
    89   45   49 1    
    90   45  107 1    
    91   46   47 1    
    92   46  108 1    
    93   46  109 1    
    94   47   48 1    
    95   48  110 1    
    96   48  111 1    
    97   49   50 am   BACKBONE|DICT|INTERRES
    98   49  112 1    
    99   50   51 2    
   100   50   52 1    
   101   52   53 1    
   102   52   54 1    
   103   52  113 1    
   104   53  114 1    
   105   53  115 1    
   106   53  116 1    
   107   54   55 am   BACKBONE|DICT|INTERRES
   108   54  117 1    
   109   55   56 2    
   110   55   57 1    
   111   57   58 1    
   112   57   59 1    
   113   57  118 1    
   114   58  119 1    
   115   58  120 1    
   116   58  121 1    
   117   59   60 am   BACKBONE|DICT|INTERRES
   118   59  122 1    
   119   60   61 2    
   120   60   62 1    
   121   62   63 1    
   122   62   64 1    
   123   62  123 1    
   124   63  124 1    
   125   63  125 1    
   126   63  126 1    
   127   64   65 am   BACKBONE|DICT|INTERRES
   128   64  127 1    
   129   65   66 2    
@<TRIPOS>SUBSTRUCTURE
     1 UNK         1 GROUP             0       ****    0 ROOT    
