@<TRIPOS>MOLECULE
3R135
127   129    1
SMALL
USER_CHARGES


@<TRIPOS>ATOM
      1 CA        -82.5249   24.9640  -68.2745 C.3       0 UNK        -0.1998 
      2 C         -82.6057   25.7764  -69.5581 C.2       0 UNK         0.4909 
      3 O         -83.6497   26.3615  -69.8481 O.2       0 UNK        -0.5240 
      4 N         -81.5111   25.8173  -70.3293 N.am      1 UNK        -0.4739 
      5 CA        -81.4033   26.5595  -71.5941 C.3       1 UNK         0.0864 
      6 C6        -79.9300   26.7264  -72.0447 C.3       11 UNK        -0.0881 
      7 S7        -78.8728   27.5193  -70.7863 S.3       11 UNK        -0.2682 
      8 C8        -78.9287   29.2692  -71.2881 C.3       11 UNK         0.0289 
      9 C9        -78.1790   29.5318  -72.5874 C.ar      11 UNK        -0.0687 
     10 C10       -78.8813   29.8286  -73.7601 C.ar      11 UNK        -0.0823 
     11 C11       -78.1966   30.0927  -74.9505 C.ar      11 UNK        -0.0830 
     12 C12       -76.8013   30.0941  -74.9529 C.ar      11 UNK        -0.1021 
     13 C13       -76.0897   29.7462  -73.8041 C.ar      11 UNK        -0.0753 
     14 C14       -76.7817   29.4781  -72.6188 C.ar      11 UNK        -0.0933 
     15 C15       -74.5826   29.5831  -73.8819 C.3       11 UNK         0.0166 
     16 S16       -73.6798   31.0091  -73.2063 S.3       11 UNK        -0.2615 
     17 C17       -73.2939   30.4422  -71.5122 C.3       11 UNK        -0.0865 
     18 CA        -71.8373   29.9034  -71.3794 C.3       10 UNK         0.0862 
     19 C         -71.3971   29.7060  -69.8953 C.2       10 UNK         0.5551 
     20 N         -70.5168   28.7602  -69.5904 N.am      10 UNK        -0.7319 
     21 O         -71.8300   30.4397  -69.0096 O.2       10 UNK        -0.5018 
     22 N         -71.5701   28.7522  -72.2642 N.am      10 UNK        -0.4509 
     23 C         -72.1315   27.5388  -72.1883 C.2       10 UNK         0.4899 
     24 O         -72.9423   27.2110  -71.3210 O.2       10 UNK        -0.4839 
     25 CA        -71.7493   26.5425  -73.3002 C.3       9 UNK         0.0222 
     26 CB        -72.4021   25.1602  -73.1107 C.3       9 UNK        -0.1966 
     27 N         -72.0900   27.0427  -74.6356 N.am      9 UNK        -0.4218 
     28 C         -71.3773   27.9293  -75.3463 C.2       9 UNK         0.5020 
     29 O         -70.3765   28.5033  -74.9105 O.2       9 UNK        -0.5274 
     30 CA        -71.8677   28.1976  -76.7840 C.3       8 UNK         0.0270 
     31 CB        -70.8384   28.9503  -77.6533 C.3       8 UNK        -0.1976 
     32 N         -72.3267   26.9649  -77.4361 N.am      8 UNK        -0.4313 
     33 C         -71.6051   25.8668  -77.7118 C.2       8 UNK         0.5041 
     34 O         -70.3814   25.7922  -77.5961 O.2       8 UNK        -0.5577 
     35 CA        -72.3857   24.6150  -78.1473 C.3       7 UNK         0.0284 
     36 CB        -72.5964   23.6802  -76.9439 C.3       7 UNK        -0.1958 
     37 N         -73.6896   24.9296  -78.7338 N.am      7 UNK        -0.4454 
     38 C         -73.8846   25.2804  -80.0115 C.2       7 UNK         0.5089 
     39 O         -72.9858   25.3560  -80.8495 O.2       7 UNK        -0.5125 
     40 CA        -75.3331   25.5977  -80.4236 C.3       6 UNK         0.0408 
     41 CB        -76.0318   24.3322  -80.9459 C.3       6 UNK        -0.1791 
     42 N         -76.1263   26.1760  -79.3342 N.am      6 UNK        -0.4762 
     43 C         -75.9654   27.4204  -78.8606 C.2       6 UNK         0.5007 
     44 O         -75.1326   28.2164  -79.2945 O.2       6 UNK        -0.5032 
     45 CA        -76.8708   27.8347  -77.6859 C.3       5 UNK         0.0783 
     46 C46       -78.2203   28.3882  -78.2192 C.3       11 UNK        -0.0857 
     47 S47       -79.4973   28.7422  -76.9610 S.3       11 UNK        -0.2512 
     48 C48       -78.9671   30.3294  -76.2395 C.3       11 UNK         0.0225 
     49 N         -77.0173   26.7788  -76.6758 N.am      5 UNK        -0.4615 
     50 C         -76.0184   26.2549  -75.9522 C.2       4 UNK         0.5053 
     51 O         -74.8334   26.5545  -76.1089 O.2       4 UNK        -0.5105 
     52 CA        -76.3647   25.2089  -74.8782 C.3       4 UNK         0.0263 
     53 CB        -76.5549   25.8946  -73.5114 C.3       4 UNK        -0.1981 
     54 N         -77.4862   24.3081  -75.1975 N.am      4 UNK        -0.4224 
     55 C         -78.7902   24.5984  -75.3108 C.2       3 UNK         0.4895 
     56 O         -79.2428   25.7381  -75.2155 O.2       3 UNK        -0.5091 
     57 CA        -79.7649   23.4385  -75.5702 C.3       3 UNK         0.0250 
     58 CB        -79.1379   22.0320  -75.4686 C.3       3 UNK        -0.1996 
     59 N         -80.8506   23.5611  -74.6032 N.am      3 UNK        -0.4254 
     60 C         -82.1604   23.4866  -74.8646 C.2       2 UNK         0.5004 
     61 O         -82.6292   23.1884  -75.9639 O.2       2 UNK        -0.5226 
     62 CA        -83.1134   23.8014  -73.6948 C.3       2 UNK         0.0269 
     63 CB        -83.6548   22.5023  -73.0757 C.3       2 UNK        -0.1926 
     64 N         -82.4763   24.6038  -72.6434 N.am      2 UNK        -0.4687 
     65 C         -82.2252   25.9194  -72.7346 C.2       1 UNK         0.5165 
     66 O         -82.5992   26.6180  -73.6771 O.2       1 UNK        -0.5079 
     67 H67       -82.7191   25.6031  -67.4136 H         1 UNK         0.0900 
     68 H68       -81.5445   24.5065  -68.1423 H         1 UNK         0.0900 
     69 H69       -83.2712   24.1701  -68.2852 H         1 UNK         0.0900 
     70 H70       -80.6689   25.3486  -70.0256 H         1 UNK         0.2959 
     71 H71       -81.8198   27.5561  -71.4306 H         1 UNK         0.1079 
     72 H72       -79.4906   25.7535  -72.2719 H         1 UNK         0.0837 
     73 H73       -79.8734   27.2963  -72.9739 H         1 UNK         0.0837 
     74 H74       -79.9694   29.5876  -71.3664 H         1 UNK         0.0685 
     75 H75       -78.4854   29.8734  -70.4954 H         1 UNK         0.0685 
     76 H76       -79.9628   29.8358  -73.7539 H         1 UNK         0.1434 
     77 H77       -76.2645   30.3266  -75.8607 H         1 UNK         0.1329 
     78 H78       -76.2386   29.2079  -71.7244 H         1 UNK         0.1335 
     79 H79       -74.3050   28.6651  -73.3699 H         1 UNK         0.0680 
     80 H80       -74.2764   29.4441  -74.9191 H         1 UNK         0.0680 
     81 H81       -74.0152   29.6934  -71.1843 H         1 UNK         0.1032 
     82 H82       -73.4433   31.3012  -70.8558 H         1 UNK         0.1032 
     83 H83       -71.1772   30.6917  -71.7429 H         1 UNK         0.0461 
     84 H84       -70.1454   28.1607  -70.3095 H         1 UNK         0.3453 
     85 H85       -70.2265   28.6433  -68.6323 H         1 UNK         0.3453 
     86 H86       -70.9367   28.9228  -73.0396 H         1 UNK         0.2984 
     87 H87       -70.6674   26.4036  -73.2470 H         1 UNK         0.0554 
     88 H88       -72.1515   24.7395  -72.1359 H         1 UNK         0.0847 
     89 H89       -72.0563   24.4516  -73.8632 H         1 UNK         0.0847 
     90 H90       -73.4893   25.2131  -73.1725 H         1 UNK         0.0847 
     91 H91       -72.9353   26.6757  -75.0580 H         1 UNK         0.3141 
     92 H92       -72.7472   28.8362  -76.6936 H         1 UNK         0.0743 
     93 H93       -70.6097   29.9275  -77.2262 H         1 UNK         0.0784 
     94 H94       -69.8976   28.4054  -77.7350 H         1 UNK         0.0784 
     95 H95       -71.2187   29.1178  -78.6610 H         1 UNK         0.0784 
     96 H96       -73.3344   26.8766  -77.5052 H         1 UNK         0.3213 
     97 H97       -71.7790   24.0880  -78.8873 H         1 UNK         0.0855 
     98 H98       -71.6428   23.4117  -76.4867 H         1 UNK         0.0814 
     99 H99       -73.0827   22.7516  -77.2430 H         1 UNK         0.0814 
    100 H100      -73.2078   24.1463  -76.1705 H         1 UNK         0.0814 
    101 H101      -74.4884   24.9094  -78.1172 H         1 UNK         0.3105 
    102 H102      -75.2932   26.3229  -81.2394 H         1 UNK         0.0547 
    103 H103      -75.4745   23.8942  -81.7753 H         1 UNK         0.0837 
    104 H104      -76.1187   23.5673  -80.1732 H         1 UNK         0.0837 
    105 H105      -77.0335   24.5544  -81.3140 H         1 UNK         0.0837 
    106 H106      -76.8377   25.5916  -78.9181 H         1 UNK         0.3020 
    107 H107      -76.3444   28.6512  -77.1989 H         1 UNK         0.1245 
    108 H108      -78.6688   27.6714  -78.9100 H         1 UNK         0.0781 
    109 H109      -78.0519   29.2942  -78.8048 H         1 UNK         0.0781 
    110 H110      -79.8504   30.9345  -76.0295 H         1 UNK         0.0836 
    111 H111      -78.3723   30.8966  -76.9570 H         1 UNK         0.0836 
    112 H112      -77.9668   26.5383  -76.4030 H         1 UNK         0.3022 
    113 H113      -75.4916   24.5601  -74.7941 H         1 UNK         0.0747 
    114 H114      -75.6589   26.4445  -73.2210 H         1 UNK         0.0793 
    115 H115      -77.3734   26.6147  -73.5305 H         1 UNK         0.0793 
    116 H116      -76.7609   25.1706  -72.7234 H         1 UNK         0.0793 
    117 H117      -77.2258   23.3394  -75.3210 H         1 UNK         0.3047 
    118 H118      -80.1499   23.5776  -76.5827 H         1 UNK         0.0822 
    119 H119      -78.3597   21.8856  -76.2187 H         1 UNK         0.0807 
    120 H120      -79.8886   21.2605  -75.6419 H         1 UNK         0.0807 
    121 H121      -78.7022   21.8476  -74.4855 H         1 UNK         0.0807 
    122 H122      -80.5771   23.8620  -73.6794 H         1 UNK         0.2946 
    123 H123      -83.9551   24.3656  -74.1037 H         1 UNK         0.1144 
    124 H124      -84.3783   22.7102  -72.2870 H         1 UNK         0.0793 
    125 H125      -82.8568   21.8934  -72.6491 H         1 UNK         0.0793 
    126 H126      -84.1622   21.8948  -73.8265 H         1 UNK         0.0793 
    127 H127      -82.1640   24.1152  -71.8162 H         1 UNK         0.2896 
@<TRIPOS>BOND
     1    1    2 1    
     2    1   67 1    
     3    1   68 1    
     4    1   69 1    
     5    2    3 2    
     6    2    4 am   BACKBONE|DICT|INTERRES
     7    4    5 1    
     8    4   70 1    
     9    5    6 1    
    10    5   65 1    
    11    5   71 1    
    12    6    7 1    
    13    6   72 1    
    14    6   73 1    
    15    7    8 1    
    16    8    9 1    
    17    8   74 1    
    18    8   75 1    
    19    9   10 ar   
    20    9   14 ar   
    21   10   11 ar   
    22   10   76 1    
    23   11   12 ar   
    24   11   48 1    
    25   12   13 ar   
    26   12   77 1    
    27   13   14 ar   
    28   13   15 1    
    29   14   78 1    
    30   15   16 1    
    31   15   79 1    
    32   15   80 1    
    33   16   17 1    
    34   17   18 1    
    35   17   81 1    
    36   17   82 1    
    37   18   19 1    
    38   18   22 1    
    39   18   83 1    
    40   19   20 am   BACKBONE|DICT|INTERRES
    41   19   21 2    
    42   20   84 1    
    43   20   85 1    
    44   22   23 am   BACKBONE|DICT|INTERRES
    45   22   86 1    
    46   23   24 2    
    47   23   25 1    
    48   25   26 1    
    49   25   27 1    
    50   25   87 1    
    51   26   88 1    
    52   26   89 1    
    53   26   90 1    
    54   27   28 am   BACKBONE|DICT|INTERRES
    55   27   91 1    
    56   28   29 2    
    57   28   30 1    
    58   30   31 1    
    59   30   32 1    
    60   30   92 1    
    61   31   93 1    
    62   31   94 1    
    63   31   95 1    
    64   32   33 am   BACKBONE|DICT|INTERRES
    65   32   96 1    
    66   33   34 2    
    67   33   35 1    
    68   35   36 1    
    69   35   37 1    
    70   35   97 1    
    71   36   98 1    
    72   36   99 1    
    73   36  100 1    
    74   37   38 am   BACKBONE|DICT|INTERRES
    75   37  101 1    
    76   38   39 2    
    77   38   40 1    
    78   40   41 1    
    79   40   42 1    
    80   40  102 1    
    81   41  103 1    
    82   41  104 1    
    83   41  105 1    
    84   42   43 am   BACKBONE|DICT|INTERRES
    85   42  106 1    
    86   43   44 2    
    87   43   45 1    
    88   45   46 1    
    89   45   49 1    
    90   45  107 1    
    91   46   47 1    
    92   46  108 1    
    93   46  109 1    
    94   47   48 1    
    95   48  110 1    
    96   48  111 1    
    97   49   50 am   BACKBONE|DICT|INTERRES
    98   49  112 1    
    99   50   51 2    
   100   50   52 1    
   101   52   53 1    
   102   52   54 1    
   103   52  113 1    
   104   53  114 1    
   105   53  115 1    
   106   53  116 1    
   107   54   55 am   BACKBONE|DICT|INTERRES
   108   54  117 1    
   109   55   56 2    
   110   55   57 1    
   111   57   58 1    
   112   57   59 1    
   113   57  118 1    
   114   58  119 1    
   115   58  120 1    
   116   58  121 1    
   117   59   60 am   BACKBONE|DICT|INTERRES
   118   59  122 1    
   119   60   61 2    
   120   60   62 1    
   121   62   63 1    
   122   62   64 1    
   123   62  123 1    
   124   63  124 1    
   125   63  125 1    
   126   63  126 1    
   127   64   65 am   BACKBONE|DICT|INTERRES
   128   64  127 1    
   129   65   66 2    
@<TRIPOS>SUBSTRUCTURE
     1 UNK         1 GROUP             0       ****    0 ROOT    
