@<TRIPOS>MOLECULE
3R135
127   129    1
SMALL
USER_CHARGES


@<TRIPOS>ATOM
      1 CA        -80.1627   29.5797  -76.2175 C.3       0 UNK        -0.1998 
      2 C         -80.2366   28.4736  -75.1769 C.2       0 UNK         0.4909 
      3 O         -79.4985   27.4912  -75.2739 O.2       0 UNK        -0.5240 
      4 N         -81.1254   28.6282  -74.1856 N.am      1 UNK        -0.4739 
      5 CA        -81.3414   27.6923  -73.0768 C.3       1 UNK         0.0864 
      6 C6        -82.3919   28.2051  -72.0581 C.3       11 UNK        -0.0881 
      7 S7        -82.0653   29.8867  -71.4321 S.3       11 UNK        -0.2682 
      8 C8        -81.1515   29.5466  -69.8950 C.3       11 UNK         0.0289 
      9 C9        -79.6886   29.2359  -70.1713 C.ar      11 UNK        -0.0687 
     10 C10       -79.1894   27.9375  -70.0199 C.ar      11 UNK        -0.0823 
     11 C11       -77.8391   27.6678  -70.2665 C.ar      11 UNK        -0.0830 
     12 C12       -76.9851   28.7135  -70.6313 C.ar      11 UNK        -0.1021 
     13 C13       -77.4816   30.0028  -70.8327 C.ar      11 UNK        -0.0753 
     14 C14       -78.8322   30.2602  -70.5867 C.ar      11 UNK        -0.0933 
     15 C15       -76.5725   31.1118  -71.3428 C.3       11 UNK         0.0166 
     16 S16       -76.5040   31.1200  -73.1659 S.3       11 UNK        -0.2615 
     17 C17       -75.1709   29.9131  -73.5015 C.3       11 UNK        -0.0865 
     18 CA        -73.9100   30.5088  -74.1843 C.3       10 UNK         0.0862 
     19 C         -73.2463   31.6217  -73.3152 C.2       10 UNK         0.5551 
     20 N         -72.3179   31.2823  -72.4277 N.am      10 UNK        -0.7319 
     21 O         -73.5578   32.8005  -73.4638 O.2       10 UNK        -0.5018 
     22 N         -72.9651   29.4417  -74.5695 N.am      10 UNK        -0.4509 
     23 C         -71.8853   29.6472  -75.3377 C.2       10 UNK         0.4899 
     24 O         -71.6921   30.6800  -75.9797 O.2       10 UNK        -0.4839 
     25 CA        -70.7979   28.5644  -75.3418 C.3       9 UNK         0.0222 
     26 CB        -69.9263   28.7094  -74.0750 C.3       9 UNK        -0.1966 
     27 N         -71.3147   27.1972  -75.4737 N.am      9 UNK        -0.4218 
     28 C         -70.5409   26.1396  -75.7680 C.2       9 UNK         0.5020 
     29 O         -69.3249   26.2101  -75.9569 O.2       9 UNK        -0.5274 
     30 CA        -71.2208   24.7657  -75.8800 C.3       8 UNK         0.0270 
     31 CB        -71.6146   24.2250  -74.4952 C.3       8 UNK        -0.1976 
     32 N         -72.3814   24.7841  -76.7691 N.am      8 UNK        -0.4313 
     33 C         -72.3170   24.9463  -78.0992 C.2       8 UNK         0.5041 
     34 O         -71.2633   25.0208  -78.7329 O.2       8 UNK        -0.5577 
     35 CA        -73.6529   25.0631  -78.8543 C.3       7 UNK         0.0284 
     36 CB        -74.2240   23.6727  -79.1727 C.3       7 UNK        -0.1958 
     37 N         -74.6447   25.8520  -78.1210 N.am      7 UNK        -0.4454 
     38 C         -74.5131   27.1554  -77.8346 C.2       7 UNK         0.5089 
     39 O         -73.5863   27.8603  -78.2336 O.2       7 UNK        -0.5125 
     40 CA        -75.5769   27.7691  -76.9139 C.3       6 UNK         0.0408 
     41 CB        -76.7958   28.2366  -77.7219 C.3       6 UNK        -0.1791 
     42 N         -76.0095   26.8513  -75.8578 N.am      6 UNK        -0.4762 
     43 C         -75.2350   26.4188  -74.8514 C.2       6 UNK         0.5007 
     44 O         -74.0608   26.7562  -74.6923 O.2       6 UNK        -0.5032 
     45 CA        -75.8943   25.4477  -73.8535 C.3       5 UNK         0.0783 
     46 C46       -76.9130   26.2305  -72.9921 C.3       11 UNK        -0.0857 
     47 S47       -77.6918   25.2594  -71.6585 S.3       11 UNK        -0.2512 
     48 C48       -77.3005   26.2450  -70.1699 C.3       11 UNK         0.0225 
     49 N         -76.5011   24.3055  -74.5414 N.am      5 UNK        -0.4615 
     50 C         -75.8517   23.4418  -75.3373 C.2       4 UNK         0.5053 
     51 O         -74.6355   23.4546  -75.5154 O.2       4 UNK        -0.5105 
     52 CA        -76.7143   22.4333  -76.1171 C.3       4 UNK         0.0263 
     53 CB        -76.9234   21.1539  -75.2928 C.3       4 UNK        -0.1981 
     54 N         -78.0161   22.9858  -76.4958 N.am      4 UNK        -0.4224 
     55 C         -78.2135   24.0808  -77.2423 C.2       3 UNK         0.4895 
     56 O         -77.3120   24.6732  -77.8358 O.2       3 UNK        -0.5091 
     57 CA        -79.6319   24.6731  -77.2436 C.3       3 UNK         0.0250 
     58 CB        -80.5249   24.0176  -78.3144 C.3       3 UNK        -0.1996 
     59 N         -80.2546   24.6749  -75.9081 N.am      3 UNK        -0.4254 
     60 C         -80.7080   23.6357  -75.1856 C.2       2 UNK         0.5004 
     61 O         -80.6934   22.4748  -75.5963 O.2       2 UNK        -0.5226 
     62 CA        -81.1809   23.8978  -73.7405 C.3       2 UNK         0.0269 
     63 CB        -80.4844   22.9409  -72.7555 C.3       2 UNK        -0.1926 
     64 N         -80.9636   25.2749  -73.2869 N.am      2 UNK        -0.4687 
     65 C         -81.7593   26.3045  -73.5998 C.2       1 UNK         0.5165 
     66 O         -82.7778   26.1953  -74.2863 O.2       1 UNK        -0.5079 
     67 H67       -81.0187   30.2515  -76.1563 H         1 UNK         0.0900 
     68 H68       -79.2571   30.1679  -76.0725 H         1 UNK         0.0900 
     69 H69       -80.1396   29.1528  -77.2198 H         1 UNK         0.0900 
     70 H70       -81.7030   29.4563  -74.1619 H         1 UNK         0.2959 
     71 H71       -80.3837   27.5949  -72.5622 H         1 UNK         0.1079 
     72 H72       -82.4701   27.5182  -71.2132 H         1 UNK         0.0837 
     73 H73       -83.3836   28.2253  -72.5152 H         1 UNK         0.0837 
     74 H74       -81.2104   30.4269  -69.2533 H         1 UNK         0.0685 
     75 H75       -81.6316   28.7375  -69.3427 H         1 UNK         0.0685 
     76 H76       -79.8509   27.1345  -69.7244 H         1 UNK         0.1434 
     77 H77       -75.9376   28.5117  -70.8012 H         1 UNK         0.1329 
     78 H78       -79.2244   31.2575  -70.7334 H         1 UNK         0.1335 
     79 H79       -76.9451   32.0799  -71.0049 H         1 UNK         0.0680 
     80 H80       -75.5692   31.0129  -70.9254 H         1 UNK         0.0680 
     81 H81       -74.8855   29.3982  -72.5850 H         1 UNK         0.1032 
     82 H82       -75.6089   29.1529  -74.1450 H         1 UNK         0.1032 
     83 H83       -74.2401   30.9855  -75.1096 H         1 UNK         0.0461 
     84 H84       -72.0490   30.3202  -72.3045 H         1 UNK         0.3453 
     85 H85       -71.8810   32.0020  -71.8740 H         1 UNK         0.3453 
     86 H86       -73.0916   28.5427  -74.1231 H         1 UNK         0.2984 
     87 H87       -70.1687   28.7634  -76.2123 H         1 UNK         0.0554 
     88 H88       -69.0153   28.1150  -74.1389 H         1 UNK         0.0847 
     89 H89       -70.4637   28.3983  -73.1788 H         1 UNK         0.0847 
     90 H90       -69.6152   29.7448  -73.9270 H         1 UNK         0.0847 
     91 H91       -72.3157   27.0584  -75.3494 H         1 UNK         0.3141 
     92 H92       -70.4918   24.0730  -76.3062 H         1 UNK         0.0743 
     93 H93       -70.7523   24.1984  -73.8277 H         1 UNK         0.0784 
     94 H94       -72.3779   24.8381  -74.0167 H         1 UNK         0.0784 
     95 H95       -72.0010   23.2080  -74.5645 H         1 UNK         0.0784 
     96 H96       -73.2891   24.6410  -76.3354 H         1 UNK         0.3213 
     97 H97       -73.4579   25.5755  -79.7990 H         1 UNK         0.0855 
     98 H98       -74.3938   23.0903  -78.2677 H         1 UNK         0.0814 
     99 H99       -73.5344   23.1048  -79.7986 H         1 UNK         0.0814 
    100 H100      -75.1698   23.7428  -79.7105 H         1 UNK         0.0814 
    101 H101      -75.4871   25.3728  -77.8136 H         1 UNK         0.3105 
    102 H102      -75.1320   28.6455  -76.4396 H         1 UNK         0.0547 
    103 H103      -76.5003   28.9347  -78.5061 H         1 UNK         0.0837 
    104 H104      -77.3104   27.4037  -78.2022 H         1 UNK         0.0837 
    105 H105      -77.5127   28.7513  -77.0844 H         1 UNK         0.0837 
    106 H106      -76.9627   26.5201  -75.9144 H         1 UNK         0.3020 
    107 H107      -75.1062   25.0623  -73.2027 H         1 UNK         0.1245 
    108 H108      -77.7153   26.6392  -73.6068 H         1 UNK         0.0781 
    109 H109      -76.4078   27.0906  -72.5601 H         1 UNK         0.0781 
    110 H110      -76.2200   26.2513  -70.0177 H         1 UNK         0.0836 
    111 H111      -77.7266   25.7507  -69.2956 H         1 UNK         0.0836 
    112 H112      -77.4989   24.2062  -74.4403 H         1 UNK         0.3022 
    113 H113      -76.1840   22.1722  -77.0340 H         1 UNK         0.0747 
    114 H114      -77.4725   20.4023  -75.8604 H         1 UNK         0.0793 
    115 H115      -75.9669   20.7111  -75.0110 H         1 UNK         0.0793 
    116 H116      -77.4769   21.3500  -74.3734 H         1 UNK         0.0793 
    117 H117      -78.8418   22.5608  -76.0818 H         1 UNK         0.3047 
    118 H118      -79.5259   25.7257  -77.5119 H         1 UNK         0.0822 
    119 H119      -81.5203   24.4616  -78.3252 H         1 UNK         0.0807 
    120 H120      -80.6371   22.9443  -78.1599 H         1 UNK         0.0807 
    121 H121      -80.0975   24.1550  -79.3084 H         1 UNK         0.0807 
    122 H122      -80.2536   25.5866  -75.4608 H         1 UNK         0.2946 
    123 H123      -82.2523   23.6846  -73.7171 H         1 UNK         0.1144 
    124 H124      -79.3993   23.0402  -72.7922 H         1 UNK         0.0793 
    125 H125      -80.7213   21.9009  -72.9844 H         1 UNK         0.0793 
    126 H126      -80.8043   23.1222  -71.7293 H         1 UNK         0.0793 
    127 H127      -80.1320   25.4404  -72.7356 H         1 UNK         0.2896 
@<TRIPOS>BOND
     1    1    2 1    
     2    1   67 1    
     3    1   68 1    
     4    1   69 1    
     5    2    3 2    
     6    2    4 am   BACKBONE|DICT|INTERRES
     7    4    5 1    
     8    4   70 1    
     9    5    6 1    
    10    5   65 1    
    11    5   71 1    
    12    6    7 1    
    13    6   72 1    
    14    6   73 1    
    15    7    8 1    
    16    8    9 1    
    17    8   74 1    
    18    8   75 1    
    19    9   10 ar   
    20    9   14 ar   
    21   10   11 ar   
    22   10   76 1    
    23   11   12 ar   
    24   11   48 1    
    25   12   13 ar   
    26   12   77 1    
    27   13   14 ar   
    28   13   15 1    
    29   14   78 1    
    30   15   16 1    
    31   15   79 1    
    32   15   80 1    
    33   16   17 1    
    34   17   18 1    
    35   17   81 1    
    36   17   82 1    
    37   18   19 1    
    38   18   22 1    
    39   18   83 1    
    40   19   20 am   BACKBONE|DICT|INTERRES
    41   19   21 2    
    42   20   84 1    
    43   20   85 1    
    44   22   23 am   BACKBONE|DICT|INTERRES
    45   22   86 1    
    46   23   24 2    
    47   23   25 1    
    48   25   26 1    
    49   25   27 1    
    50   25   87 1    
    51   26   88 1    
    52   26   89 1    
    53   26   90 1    
    54   27   28 am   BACKBONE|DICT|INTERRES
    55   27   91 1    
    56   28   29 2    
    57   28   30 1    
    58   30   31 1    
    59   30   32 1    
    60   30   92 1    
    61   31   93 1    
    62   31   94 1    
    63   31   95 1    
    64   32   33 am   BACKBONE|DICT|INTERRES
    65   32   96 1    
    66   33   34 2    
    67   33   35 1    
    68   35   36 1    
    69   35   37 1    
    70   35   97 1    
    71   36   98 1    
    72   36   99 1    
    73   36  100 1    
    74   37   38 am   BACKBONE|DICT|INTERRES
    75   37  101 1    
    76   38   39 2    
    77   38   40 1    
    78   40   41 1    
    79   40   42 1    
    80   40  102 1    
    81   41  103 1    
    82   41  104 1    
    83   41  105 1    
    84   42   43 am   BACKBONE|DICT|INTERRES
    85   42  106 1    
    86   43   44 2    
    87   43   45 1    
    88   45   46 1    
    89   45   49 1    
    90   45  107 1    
    91   46   47 1    
    92   46  108 1    
    93   46  109 1    
    94   47   48 1    
    95   48  110 1    
    96   48  111 1    
    97   49   50 am   BACKBONE|DICT|INTERRES
    98   49  112 1    
    99   50   51 2    
   100   50   52 1    
   101   52   53 1    
   102   52   54 1    
   103   52  113 1    
   104   53  114 1    
   105   53  115 1    
   106   53  116 1    
   107   54   55 am   BACKBONE|DICT|INTERRES
   108   54  117 1    
   109   55   56 2    
   110   55   57 1    
   111   57   58 1    
   112   57   59 1    
   113   57  118 1    
   114   58  119 1    
   115   58  120 1    
   116   58  121 1    
   117   59   60 am   BACKBONE|DICT|INTERRES
   118   59  122 1    
   119   60   61 2    
   120   60   62 1    
   121   62   63 1    
   122   62   64 1    
   123   62  123 1    
   124   63  124 1    
   125   63  125 1    
   126   63  126 1    
   127   64   65 am   BACKBONE|DICT|INTERRES
   128   64  127 1    
   129   65   66 2    
@<TRIPOS>SUBSTRUCTURE
     1 UNK         1 GROUP             0       ****    0 ROOT    
