@<TRIPOS>MOLECULE
3R135
127   129    1
SMALL
USER_CHARGES


@<TRIPOS>ATOM
      1 CA        -85.9573   30.3937  -76.9411 C.3       0 UNK        -0.1998 
      2 C         -84.8775   29.6285  -76.1900 C.2       0 UNK         0.4909 
      3 O         -85.1817   28.9593  -75.2018 O.2       0 UNK        -0.5240 
      4 N         -83.6224   29.7312  -76.6504 N.am      1 UNK        -0.4739 
      5 CA        -82.4414   29.0388  -76.1153 C.3       1 UNK         0.0864 
      6 C6        -82.1280   29.4497  -74.6467 C.3       11 UNK        -0.0881 
      7 S7        -80.3390   29.4763  -74.3117 S.3       11 UNK        -0.2682 
      8 C8        -80.2842   28.8867  -72.5886 C.3       11 UNK         0.0289 
      9 C9        -78.8698   28.5803  -72.1019 C.ar      11 UNK        -0.0687 
     10 C10       -78.6308   27.4061  -71.3812 C.ar      11 UNK        -0.0823 
     11 C11       -77.3531   27.1174  -70.8965 C.ar      11 UNK        -0.0830 
     12 C12       -76.3089   28.0090  -71.1399 C.ar      11 UNK        -0.1021 
     13 C13       -76.5128   29.1668  -71.8955 C.ar      11 UNK        -0.0753 
     14 C14       -77.8040   29.4548  -72.3534 C.ar      11 UNK        -0.0933 
     15 C15       -75.3520   30.0769  -72.2967 C.3       11 UNK         0.0166 
     16 S16       -74.1124   30.3852  -70.9899 S.3       11 UNK        -0.2615 
     17 C17       -72.9118   29.0181  -71.1971 C.3       11 UNK        -0.0865 
     18 CA        -71.7522   29.3715  -72.1610 C.3       10 UNK         0.0862 
     19 C         -70.5708   28.3820  -71.9949 C.2       10 UNK         0.5551 
     20 N         -69.4648   28.8242  -71.4131 N.am      10 UNK        -0.7319 
     21 O         -70.6667   27.2082  -72.3475 O.2       10 UNK        -0.5018 
     22 N         -72.2111   29.3554  -73.5525 N.am      10 UNK        -0.4509 
     23 C         -71.7362   30.1419  -74.5231 C.2       10 UNK         0.4899 
     24 O         -70.9073   31.0358  -74.3415 O.2       10 UNK        -0.4839 
     25 CA        -72.2908   29.8712  -75.9338 C.3       9 UNK         0.0222 
     26 CB        -71.6400   30.7467  -77.0259 C.3       9 UNK        -0.1966 
     27 N         -72.2297   28.4497  -76.2920 N.am      9 UNK        -0.4218 
     28 C         -71.1357   27.6765  -76.3946 C.2       9 UNK         0.5020 
     29 O         -69.9860   28.0901  -76.2367 O.2       9 UNK        -0.5274 
     30 CA        -71.3383   26.1821  -76.7202 C.3       8 UNK         0.0270 
     31 CB        -70.9728   25.3199  -75.5003 C.3       8 UNK        -0.1976 
     32 N         -72.6976   25.8408  -77.1465 N.am      8 UNK        -0.4313 
     33 C         -73.2497   26.1651  -78.3231 C.2       8 UNK         0.5041 
     34 O         -72.6406   26.7212  -79.2374 O.2       8 UNK        -0.5577 
     35 CA        -74.7514   25.8643  -78.4832 C.3       7 UNK         0.0284 
     36 CB        -74.9747   24.4263  -78.9777 C.3       7 UNK        -0.1958 
     37 N         -75.5127   26.0916  -77.2484 N.am      7 UNK        -0.4454 
     38 C         -75.6507   27.2845  -76.6494 C.2       7 UNK         0.5089 
     39 O         -75.1698   28.3301  -77.0839 O.2       7 UNK        -0.5125 
     40 CA        -76.4120   27.3075  -75.3186 C.3       6 UNK         0.0408 
     41 CB        -77.9231   27.2927  -75.5698 C.3       6 UNK        -0.1791 
     42 N         -76.0315   26.1856  -74.4599 N.am      6 UNK        -0.4762 
     43 C         -74.8566   26.1039  -73.8163 C.2       6 UNK         0.5007 
     44 O         -74.0126   27.0024  -73.8330 O.2       6 UNK        -0.5032 
     45 CA        -74.5285   24.7754  -73.0977 C.3       5 UNK         0.0783 
     46 C46       -74.8801   24.7884  -71.5870 C.3       11 UNK        -0.0857 
     47 S47       -76.6435   24.4618  -71.2151 S.3       11 UNK        -0.2512 
     48 C48       -77.0955   25.8395  -70.1153 C.3       11 UNK         0.0225 
     49 N         -75.0976   23.6085  -73.7764 N.am      5 UNK        -0.4615 
     50 C         -74.7699   23.1946  -75.0047 C.2       4 UNK         0.5053 
     51 O         -73.8915   23.7195  -75.6859 O.2       4 UNK        -0.5105 
     52 CA        -75.5819   22.0269  -75.5888 C.3       4 UNK         0.0263 
     53 CB        -74.8573   20.6953  -75.3384 C.3       4 UNK        -0.1981 
     54 N         -76.9562   21.9396  -75.0795 N.am      4 UNK        -0.4224 
     55 C         -77.9045   22.8713  -75.2573 C.2       3 UNK         0.4895 
     56 O         -77.7050   23.9364  -75.8450 O.2       3 UNK        -0.5091 
     57 CA        -79.2928   22.5213  -74.6904 C.3       3 UNK         0.0250 
     58 CB        -79.2902   22.4645  -73.1475 C.3       3 UNK        -0.1996 
     59 N         -80.3740   23.3750  -75.2049 N.am      3 UNK        -0.4254 
     60 C         -80.6786   24.6419  -74.8830 C.2       2 UNK         0.5004 
     61 O         -80.1042   25.3182  -74.0276 O.2       2 UNK        -0.5226 
     62 CA        -81.8877   25.2319  -75.6195 C.3       2 UNK         0.0269 
     63 CB        -83.2038   24.6853  -75.0302 C.3       2 UNK        -0.1926 
     64 N         -81.8763   26.6925  -75.5290 N.am      2 UNK        -0.4687 
     65 C         -82.5188   27.5115  -76.3712 C.2       1 UNK         0.5165 
     66 O         -83.1477   27.0976  -77.3500 O.2       1 UNK        -0.5079 
     67 H67       -86.7085   29.7031  -77.3233 H         1 UNK         0.0900 
     68 H68       -86.4508   31.0991  -76.2732 H         1 UNK         0.0900 
     69 H69       -85.5508   30.9526  -77.7838 H         1 UNK         0.0900 
     70 H70       -83.4536   30.2751  -77.4855 H         1 UNK         0.2959 
     71 H71       -81.6198   29.3856  -76.7444 H         1 UNK         0.1079 
     72 H72       -82.6569   28.8154  -73.9327 H         1 UNK         0.0837 
     73 H73       -82.4875   30.4621  -74.4554 H         1 UNK         0.0837 
     74 H74       -80.9068   27.9941  -72.5077 H         1 UNK         0.0685 
     75 H75       -80.7285   29.6408  -71.9378 H         1 UNK         0.0685 
     76 H76       -79.4397   26.7117  -71.1980 H         1 UNK         0.1434 
     77 H77       -75.3332   27.7794  -70.7499 H         1 UNK         0.1329 
     78 H78       -77.9778   30.3523  -72.9306 H         1 UNK         0.1335 
     79 H79       -74.8673   29.6546  -73.1762 H         1 UNK         0.0680 
     80 H80       -75.7400   31.0484  -72.6061 H         1 UNK         0.0680 
     81 H81       -73.4029   28.1070  -71.5333 H         1 UNK         0.1032 
     82 H82       -72.5229   28.7953  -70.2014 H         1 UNK         0.1032 
     83 H83       -71.4003   30.3742  -71.9083 H         1 UNK         0.0461 
     84 H84       -69.3809   29.7836  -71.1145 H         1 UNK         0.3453 
     85 H85       -68.6927   28.1894  -71.2826 H         1 UNK         0.3453 
     86 H86       -72.8376   28.5922  -73.7933 H         1 UNK         0.2984 
     87 H87       -73.3503   30.1289  -75.8977 H         1 UNK         0.0554 
     88 H88       -71.7881   31.8064  -76.8150 H         1 UNK         0.0847 
     89 H89       -72.0763   30.5473  -78.0046 H         1 UNK         0.0847 
     90 H90       -70.5651   30.5780  -77.0968 H         1 UNK         0.0847 
     91 H91       -73.1301   28.0163  -76.4580 H         1 UNK         0.3141 
     92 H92       -70.6557   25.9314  -77.5347 H         1 UNK         0.0743 
     93 H93       -69.9442   25.5010  -75.1855 H         1 UNK         0.0784 
     94 H94       -71.6150   25.5422  -74.6473 H         1 UNK         0.0784 
     95 H95       -71.0621   24.2561  -75.7215 H         1 UNK         0.0784 
     96 H96       -73.2492   25.2825  -76.4978 H         1 UNK         0.3213 
     97 H97       -75.1443   26.5477  -79.2391 H         1 UNK         0.0855 
     98 H98       -74.5652   23.6901  -78.2865 H         1 UNK         0.0814 
     99 H99       -74.4877   24.2694  -79.9411 H         1 UNK         0.0814 
    100 H100      -76.0348   24.2101  -79.1117 H         1 UNK         0.0814 
    101 H101      -75.9501   25.2877  -76.8160 H         1 UNK         0.3105 
    102 H102      -76.1682   28.2360  -74.7987 H         1 UNK         0.0547 
    103 H103      -78.2397   26.4343  -76.1611 H         1 UNK         0.0837 
    104 H104      -78.2352   28.1889  -76.1066 H         1 UNK         0.0837 
    105 H105      -78.4684   27.2665  -74.6284 H         1 UNK         0.0837 
    106 H106      -76.6675   25.3982  -74.4322 H         1 UNK         0.3020 
    107 H107      -73.4427   24.6751  -73.1669 H         1 UNK         0.1245 
    108 H108      -74.5474   25.7137  -71.1178 H         1 UNK         0.0781 
    109 H109      -74.3086   24.0033  -71.0897 H         1 UNK         0.0781 
    110 H110      -76.3144   25.9918  -69.3688 H         1 UNK         0.0836 
    111 H111      -77.9925   25.5621  -69.5596 H         1 UNK         0.0836 
    112 H112      -75.8411   23.1353  -73.2838 H         1 UNK         0.3022 
    113 H113      -75.6428   22.1831  -76.6676 H         1 UNK         0.0747 
    114 H114      -75.3663   19.8666  -75.8310 H         1 UNK         0.0793 
    115 H115      -73.8395   20.7258  -75.7304 H         1 UNK         0.0793 
    116 H116      -74.7897   20.4652  -74.2743 H         1 UNK         0.0793 
    117 H117      -77.1993   21.0894  -74.5912 H         1 UNK         0.3047 
    118 H118      -79.5270   21.5191  -75.0531 H         1 UNK         0.0822 
    119 H119      -80.2764   22.2101  -72.7595 H         1 UNK         0.0807 
    120 H120      -78.9947   23.4154  -72.7051 H         1 UNK         0.0807 
    121 H121      -78.5958   21.7102  -72.7766 H         1 UNK         0.0807 
    122 H122      -80.9263   22.9435  -75.9329 H         1 UNK         0.2946 
    123 H123      -81.8107   24.9435  -76.6707 H         1 UNK         0.1144 
    124 H124      -84.0716   25.0571  -75.5752 H         1 UNK         0.0793 
    125 H125      -83.3205   24.9694  -73.9836 H         1 UNK         0.0793 
    126 H126      -83.2390   23.5963  -75.0786 H         1 UNK         0.0793 
    127 H127      -81.3014   27.0700  -74.7843 H         1 UNK         0.2896 
@<TRIPOS>BOND
     1    1    2 1    
     2    1   67 1    
     3    1   68 1    
     4    1   69 1    
     5    2    3 2    
     6    2    4 am   BACKBONE|DICT|INTERRES
     7    4    5 1    
     8    4   70 1    
     9    5    6 1    
    10    5   65 1    
    11    5   71 1    
    12    6    7 1    
    13    6   72 1    
    14    6   73 1    
    15    7    8 1    
    16    8    9 1    
    17    8   74 1    
    18    8   75 1    
    19    9   10 ar   
    20    9   14 ar   
    21   10   11 ar   
    22   10   76 1    
    23   11   12 ar   
    24   11   48 1    
    25   12   13 ar   
    26   12   77 1    
    27   13   14 ar   
    28   13   15 1    
    29   14   78 1    
    30   15   16 1    
    31   15   79 1    
    32   15   80 1    
    33   16   17 1    
    34   17   18 1    
    35   17   81 1    
    36   17   82 1    
    37   18   19 1    
    38   18   22 1    
    39   18   83 1    
    40   19   20 am   BACKBONE|DICT|INTERRES
    41   19   21 2    
    42   20   84 1    
    43   20   85 1    
    44   22   23 am   BACKBONE|DICT|INTERRES
    45   22   86 1    
    46   23   24 2    
    47   23   25 1    
    48   25   26 1    
    49   25   27 1    
    50   25   87 1    
    51   26   88 1    
    52   26   89 1    
    53   26   90 1    
    54   27   28 am   BACKBONE|DICT|INTERRES
    55   27   91 1    
    56   28   29 2    
    57   28   30 1    
    58   30   31 1    
    59   30   32 1    
    60   30   92 1    
    61   31   93 1    
    62   31   94 1    
    63   31   95 1    
    64   32   33 am   BACKBONE|DICT|INTERRES
    65   32   96 1    
    66   33   34 2    
    67   33   35 1    
    68   35   36 1    
    69   35   37 1    
    70   35   97 1    
    71   36   98 1    
    72   36   99 1    
    73   36  100 1    
    74   37   38 am   BACKBONE|DICT|INTERRES
    75   37  101 1    
    76   38   39 2    
    77   38   40 1    
    78   40   41 1    
    79   40   42 1    
    80   40  102 1    
    81   41  103 1    
    82   41  104 1    
    83   41  105 1    
    84   42   43 am   BACKBONE|DICT|INTERRES
    85   42  106 1    
    86   43   44 2    
    87   43   45 1    
    88   45   46 1    
    89   45   49 1    
    90   45  107 1    
    91   46   47 1    
    92   46  108 1    
    93   46  109 1    
    94   47   48 1    
    95   48  110 1    
    96   48  111 1    
    97   49   50 am   BACKBONE|DICT|INTERRES
    98   49  112 1    
    99   50   51 2    
   100   50   52 1    
   101   52   53 1    
   102   52   54 1    
   103   52  113 1    
   104   53  114 1    
   105   53  115 1    
   106   53  116 1    
   107   54   55 am   BACKBONE|DICT|INTERRES
   108   54  117 1    
   109   55   56 2    
   110   55   57 1    
   111   57   58 1    
   112   57   59 1    
   113   57  118 1    
   114   58  119 1    
   115   58  120 1    
   116   58  121 1    
   117   59   60 am   BACKBONE|DICT|INTERRES
   118   59  122 1    
   119   60   61 2    
   120   60   62 1    
   121   62   63 1    
   122   62   64 1    
   123   62  123 1    
   124   63  124 1    
   125   63  125 1    
   126   63  126 1    
   127   64   65 am   BACKBONE|DICT|INTERRES
   128   64  127 1    
   129   65   66 2    
@<TRIPOS>SUBSTRUCTURE
     1 UNK         1 GROUP             0       ****    0 ROOT    
