@<TRIPOS>MOLECULE
3R135
127   129    1
SMALL
USER_CHARGES


@<TRIPOS>ATOM
      1 CA        -81.2060   23.4899  -70.9814 C.3       0 UNK        -0.1998 
      2 C         -81.7456   24.6116  -71.8567 C.2       0 UNK         0.4909 
      3 O         -82.7619   24.4329  -72.5280 O.2       0 UNK        -0.5240 
      4 N         -81.0751   25.7686  -71.8445 N.am      1 UNK        -0.4739 
      5 CA        -81.3978   26.9470  -72.6540 C.3       1 UNK         0.0864 
      6 C6        -80.6041   28.1983  -72.1943 C.3       11 UNK        -0.0881 
      7 S7        -80.6854   28.4977  -70.3908 S.3       11 UNK        -0.2682 
      8 C8        -79.3613   29.7295  -70.1234 C.3       11 UNK         0.0289 
      9 C9        -78.0416   29.3391  -70.7786 C.ar      11 UNK        -0.0687 
     10 C10       -77.3866   28.1581  -70.4099 C.ar      11 UNK        -0.0823 
     11 C11       -76.2308   27.7493  -71.0841 C.ar      11 UNK        -0.0830 
     12 C12       -75.6988   28.5633  -72.0866 C.ar      11 UNK        -0.1021 
     13 C13       -76.3335   29.7517  -72.4530 C.ar      11 UNK        -0.0753 
     14 C14       -77.5054   30.1360  -71.7965 C.ar      11 UNK        -0.0933 
     15 C15       -75.7592   30.5894  -73.5833 C.3       11 UNK         0.0166 
     16 S16       -75.9584   29.7321  -75.1750 S.3       11 UNK        -0.2615 
     17 C17       -74.7552   30.6017  -76.2325 C.3       11 UNK        -0.0865 
     18 CA        -73.4060   29.8282  -76.3515 C.3       10 UNK         0.0862 
     19 C         -72.5768   30.2330  -77.6111 C.2       10 UNK         0.5551 
     20 N         -71.2490   30.2476  -77.5646 N.am      10 UNK        -0.7319 
     21 O         -73.1432   30.5019  -78.6674 O.2       10 UNK        -0.5018 
     22 N         -72.6331   29.8062  -75.0963 N.am      10 UNK        -0.4509 
     23 C         -72.0764   30.8671  -74.4910 C.2       10 UNK         0.4899 
     24 O         -72.2487   32.0337  -74.8437 O.2       10 UNK        -0.4839 
     25 CA        -71.1371   30.5836  -73.3029 C.3       9 UNK         0.0222 
     26 CB        -71.9182   30.6455  -71.9801 C.3       9 UNK        -0.1966 
     27 N         -70.4440   29.2950  -73.3955 N.am      9 UNK        -0.4218 
     28 C         -69.6334   28.9101  -74.3921 C.2       9 UNK         0.5020 
     29 O         -69.2982   29.6386  -75.3275 O.2       9 UNK        -0.5274 
     30 CA        -69.1744   27.4398  -74.3885 C.3       8 UNK         0.0270 
     31 CB        -69.0864   26.8198  -72.9750 C.3       8 UNK        -0.1976 
     32 N         -70.0115   26.6117  -75.2692 N.am      8 UNK        -0.4313 
     33 C         -71.3431   26.4640  -75.2070 C.2       8 UNK         0.5041 
     34 O         -72.0609   27.0165  -74.3670 O.2       8 UNK        -0.5577 
     35 CA        -71.9852   25.5516  -76.2588 C.3       7 UNK         0.0284 
     36 CB        -71.7192   24.0670  -75.9523 C.3       7 UNK        -0.1958 
     37 N         -73.4200   25.8045  -76.2436 N.am      7 UNK        -0.4454 
     38 C         -74.2730   25.6815  -77.2599 C.2       7 UNK         0.5089 
     39 O         -73.9583   25.2406  -78.3667 O.2       7 UNK        -0.5125 
     40 CA        -75.7190   26.1390  -76.9803 C.3       6 UNK         0.0408 
     41 CB        -76.5805   26.1851  -78.2542 C.3       6 UNK        -0.1791 
     42 N         -76.3971   25.3191  -75.9705 N.am      6 UNK        -0.4762 
     43 C         -76.1663   25.3482  -74.6472 C.2       6 UNK         0.5007 
     44 O         -75.2867   26.0414  -74.1386 O.2       6 UNK        -0.5032 
     45 CA        -77.0602   24.4784  -73.7363 C.3       5 UNK         0.0783 
     46 C46       -77.5968   25.2778  -72.5170 C.3       11 UNK        -0.0857 
     47 S47       -76.7006   24.9775  -70.9524 S.3       11 UNK        -0.2512 
     48 C48       -75.5733   26.4078  -70.7824 C.3       11 UNK         0.0225 
     49 N         -78.1730   23.8904  -74.4923 N.am      5 UNK        -0.4615 
     50 C         -78.2768   22.5994  -74.8274 C.2       4 UNK         0.5053 
     51 O         -77.4246   21.7514  -74.5627 O.2       4 UNK        -0.5105 
     52 CA        -79.5426   22.1745  -75.5908 C.3       4 UNK         0.0263 
     53 CB        -80.6861   21.8634  -74.6136 C.3       4 UNK        -0.1981 
     54 N         -80.0041   23.1595  -76.5708 N.am      4 UNK        -0.4224 
     55 C         -79.3545   23.5035  -77.6887 C.2       3 UNK         0.4895 
     56 O         -78.2478   23.0605  -77.9942 O.2       3 UNK        -0.5091 
     57 CA        -80.0405   24.5134  -78.6287 C.3       3 UNK         0.0250 
     58 CB        -81.1062   23.8240  -79.5032 C.3       3 UNK        -0.1996 
     59 N         -80.5752   25.7088  -77.9588 N.am      3 UNK        -0.4254 
     60 C         -81.5768   25.7998  -77.0721 C.2       2 UNK         0.5004 
     61 O         -82.2694   24.8486  -76.7019 O.2       2 UNK        -0.5226 
     62 CA        -81.8322   27.2000  -76.4866 C.3       2 UNK         0.0269 
     63 CB        -83.0818   27.8273  -77.1255 C.3       2 UNK        -0.1926 
     64 N         -81.9811   27.2080  -75.0260 N.am      2 UNK        -0.4687 
     65 C         -81.1133   26.6830  -74.1482 C.2       1 UNK         0.5165 
     66 O         -80.0888   26.0734  -74.4718 O.2       1 UNK        -0.5079 
     67 H67       -80.9956   22.6077  -71.5847 H         1 UNK         0.0900 
     68 H68       -81.9419   23.2177  -70.2253 H         1 UNK         0.0900 
     69 H69       -80.2860   23.7770  -70.4719 H         1 UNK         0.0900 
     70 H70       -80.2610   25.8682  -71.2561 H         1 UNK         0.2959 
     71 H71       -82.4642   27.1473  -72.5296 H         1 UNK         0.1079 
     72 H72       -80.9684   29.0913  -72.7056 H         1 UNK         0.0837 
     73 H73       -79.5582   28.0890  -72.4852 H         1 UNK         0.0837 
     74 H74       -79.7067   30.6949  -70.4966 H         1 UNK         0.0685 
     75 H75       -79.2049   29.8539  -69.0511 H         1 UNK         0.0685 
     76 H76       -77.8101   27.5278  -69.6399 H         1 UNK         0.1434 
     77 H77       -74.8115   28.2510  -72.6219 H         1 UNK         0.1329 
     78 H78       -78.0123   31.0434  -72.0948 H         1 UNK         0.1335 
     79 H79       -74.7048   30.7727  -73.3833 H         1 UNK         0.0680 
     80 H80       -76.2416   31.5665  -73.6363 H         1 UNK         0.0680 
     81 H81       -74.6049   31.6222  -75.8788 H         1 UNK         0.1032 
     82 H82       -75.2320   30.6994  -77.2092 H         1 UNK         0.1032 
     83 H83       -73.6534   28.7833  -76.5395 H         1 UNK         0.0461 
     84 H84       -70.7471   30.0356  -76.7101 H         1 UNK         0.3453 
     85 H85       -70.7349   30.4996  -78.3936 H         1 UNK         0.3453 
     86 H86       -72.4321   28.8796  -74.7272 H         1 UNK         0.2984 
     87 H87       -70.3754   31.3657  -73.2910 H         1 UNK         0.0554 
     88 H88       -71.2557   30.5400  -71.1209 H         1 UNK         0.0847 
     89 H89       -72.6750   29.8620  -71.9203 H         1 UNK         0.0847 
     90 H90       -72.4322   31.6021  -71.8745 H         1 UNK         0.0847 
     91 H91       -70.7104   28.5904  -72.7225 H         1 UNK         0.3141 
     92 H92       -68.1687   27.4322  -74.8122 H         1 UNK         0.0743 
     93 H93       -68.6149   25.8377  -73.0120 H         1 UNK         0.0784 
     94 H94       -68.4816   27.4390  -72.3110 H         1 UNK         0.0784 
     95 H95       -70.0646   26.6920  -72.5103 H         1 UNK         0.0784 
     96 H96       -69.5167   26.1427  -76.0158 H         1 UNK         0.3213 
     97 H97       -71.5799   25.8112  -77.2392 H         1 UNK         0.0855 
     98 H98       -72.1044   23.7857  -74.9712 H         1 UNK         0.0814 
     99 H99       -70.6514   23.8458  -75.9610 H         1 UNK         0.0814 
    100 H100      -72.1885   23.4194  -76.6932 H         1 UNK         0.0814 
    101 H101      -73.7726   26.1660  -75.3568 H         1 UNK         0.3105 
    102 H102      -75.6584   27.1588  -76.5977 H         1 UNK         0.0547 
    103 H103      -76.6911   25.1974  -78.7028 H         1 UNK         0.0837 
    104 H104      -77.5748   26.5784  -78.0456 H         1 UNK         0.0837 
    105 H105      -76.1290   26.8341  -79.0057 H         1 UNK         0.0837 
    106 H106      -77.0946   24.6717  -76.3105 H         1 UNK         0.3020 
    107 H107      -76.4131   23.6797  -73.3674 H         1 UNK         0.1245 
    108 H108      -77.6915   26.3427  -72.7335 H         1 UNK         0.0781 
    109 H109      -78.6132   24.9557  -72.3012 H         1 UNK         0.0781 
    110 H110      -75.1776   26.4270  -69.7663 H         1 UNK         0.0836 
    111 H111      -74.7170   26.2442  -71.4390 H         1 UNK         0.0836 
    112 H112      -78.9289   24.5329  -74.7192 H         1 UNK         0.3022 
    113 H113      -79.3017   21.2572  -76.1323 H         1 UNK         0.0747 
    114 H114      -81.5378   21.4203  -75.1300 H         1 UNK         0.0793 
    115 H115      -80.3687   21.1565  -73.8456 H         1 UNK         0.0793 
    116 H116      -81.0354   22.7648  -74.1102 H         1 UNK         0.0793 
    117 H117      -80.9057   23.6022  -76.4047 H         1 UNK         0.3047 
    118 H118      -79.2651   24.8811  -79.3028 H         1 UNK         0.0822 
    119 H119      -81.5400   24.5199  -80.2213 H         1 UNK         0.0807 
    120 H120      -81.9193   23.4059  -78.9091 H         1 UNK         0.0807 
    121 H121      -80.6685   23.0027  -80.0724 H         1 UNK         0.0807 
    122 H122      -80.0770   26.5609  -78.1755 H         1 UNK         0.2946 
    123 H123      -80.9738   27.8346  -76.7177 H         1 UNK         0.1144 
    124 H124      -83.2320   28.8525  -76.7864 H         1 UNK         0.0793 
    125 H125      -83.9822   27.2586  -76.8889 H         1 UNK         0.0793 
    126 H126      -82.9927   27.8577  -78.2124 H         1 UNK         0.0793 
    127 H127      -82.8014   27.6766  -74.6697 H         1 UNK         0.2896 
@<TRIPOS>BOND
     1    1    2 1    
     2    1   67 1    
     3    1   68 1    
     4    1   69 1    
     5    2    3 2    
     6    2    4 am   BACKBONE|DICT|INTERRES
     7    4    5 1    
     8    4   70 1    
     9    5    6 1    
    10    5   65 1    
    11    5   71 1    
    12    6    7 1    
    13    6   72 1    
    14    6   73 1    
    15    7    8 1    
    16    8    9 1    
    17    8   74 1    
    18    8   75 1    
    19    9   10 ar   
    20    9   14 ar   
    21   10   11 ar   
    22   10   76 1    
    23   11   12 ar   
    24   11   48 1    
    25   12   13 ar   
    26   12   77 1    
    27   13   14 ar   
    28   13   15 1    
    29   14   78 1    
    30   15   16 1    
    31   15   79 1    
    32   15   80 1    
    33   16   17 1    
    34   17   18 1    
    35   17   81 1    
    36   17   82 1    
    37   18   19 1    
    38   18   22 1    
    39   18   83 1    
    40   19   20 am   BACKBONE|DICT|INTERRES
    41   19   21 2    
    42   20   84 1    
    43   20   85 1    
    44   22   23 am   BACKBONE|DICT|INTERRES
    45   22   86 1    
    46   23   24 2    
    47   23   25 1    
    48   25   26 1    
    49   25   27 1    
    50   25   87 1    
    51   26   88 1    
    52   26   89 1    
    53   26   90 1    
    54   27   28 am   BACKBONE|DICT|INTERRES
    55   27   91 1    
    56   28   29 2    
    57   28   30 1    
    58   30   31 1    
    59   30   32 1    
    60   30   92 1    
    61   31   93 1    
    62   31   94 1    
    63   31   95 1    
    64   32   33 am   BACKBONE|DICT|INTERRES
    65   32   96 1    
    66   33   34 2    
    67   33   35 1    
    68   35   36 1    
    69   35   37 1    
    70   35   97 1    
    71   36   98 1    
    72   36   99 1    
    73   36  100 1    
    74   37   38 am   BACKBONE|DICT|INTERRES
    75   37  101 1    
    76   38   39 2    
    77   38   40 1    
    78   40   41 1    
    79   40   42 1    
    80   40  102 1    
    81   41  103 1    
    82   41  104 1    
    83   41  105 1    
    84   42   43 am   BACKBONE|DICT|INTERRES
    85   42  106 1    
    86   43   44 2    
    87   43   45 1    
    88   45   46 1    
    89   45   49 1    
    90   45  107 1    
    91   46   47 1    
    92   46  108 1    
    93   46  109 1    
    94   47   48 1    
    95   48  110 1    
    96   48  111 1    
    97   49   50 am   BACKBONE|DICT|INTERRES
    98   49  112 1    
    99   50   51 2    
   100   50   52 1    
   101   52   53 1    
   102   52   54 1    
   103   52  113 1    
   104   53  114 1    
   105   53  115 1    
   106   53  116 1    
   107   54   55 am   BACKBONE|DICT|INTERRES
   108   54  117 1    
   109   55   56 2    
   110   55   57 1    
   111   57   58 1    
   112   57   59 1    
   113   57  118 1    
   114   58  119 1    
   115   58  120 1    
   116   58  121 1    
   117   59   60 am   BACKBONE|DICT|INTERRES
   118   59  122 1    
   119   60   61 2    
   120   60   62 1    
   121   62   63 1    
   122   62   64 1    
   123   62  123 1    
   124   63  124 1    
   125   63  125 1    
   126   63  126 1    
   127   64   65 am   BACKBONE|DICT|INTERRES
   128   64  127 1    
   129   65   66 2    
@<TRIPOS>SUBSTRUCTURE
     1 UNK         1 GROUP             0       ****    0 ROOT    
