@<TRIPOS>MOLECULE
3R135
127   129    1
SMALL
USER_CHARGES


@<TRIPOS>ATOM
      1 CA        -78.9669   24.3111  -70.3935 C.3       0 UNK        -0.1998 
      2 C         -80.1940   24.5373  -71.2627 C.2       0 UNK         0.4909 
      3 O         -80.9359   23.5898  -71.5221 O.2       0 UNK        -0.5240 
      4 N         -80.4156   25.7802  -71.7095 N.am      1 UNK        -0.4739 
      5 CA        -81.4938   26.1465  -72.6307 C.3       1 UNK         0.0864 
      6 C6        -82.1267   27.5180  -72.2628 C.3       11 UNK        -0.0881 
      7 S7        -81.0675   28.9806  -72.5566 S.3       11 UNK        -0.2682 
      8 C8        -80.6028   29.5052  -70.8767 C.3       11 UNK         0.0289 
      9 C9        -79.0929   29.6235  -70.7687 C.ar      11 UNK        -0.0687 
     10 C10       -78.3391   28.5422  -70.3051 C.ar      11 UNK        -0.0823 
     11 C11       -76.9450   28.6186  -70.2707 C.ar      11 UNK        -0.0830 
     12 C12       -76.3104   29.8043  -70.6404 C.ar      11 UNK        -0.1021 
     13 C13       -77.0495   30.8789  -71.1361 C.ar      11 UNK        -0.0753 
     14 C14       -78.4439   30.7911  -71.1854 C.ar      11 UNK        -0.0933 
     15 C15       -76.3269   32.1088  -71.6605 C.3       11 UNK         0.0166 
     16 S16       -76.0863   32.0588  -73.4711 S.3       11 UNK        -0.2615 
     17 C17       -75.1539   30.5120  -73.7869 C.3       11 UNK        -0.0865 
     18 CA        -73.6194   30.7186  -73.9410 C.3       10 UNK         0.0862 
     19 C         -72.8380   30.4830  -72.6115 C.2       10 UNK         0.5551 
     20 N         -71.8773   29.5675  -72.5458 N.am      10 UNK        -0.7319 
     21 O         -73.0853   31.1624  -71.6204 O.2       10 UNK        -0.5018 
     22 N         -73.0951   29.9442  -75.0765 N.am      10 UNK        -0.4509 
     23 C         -72.0151   30.2914  -75.7891 C.2       10 UNK         0.4899 
     24 O         -71.4001   31.3466  -75.6245 O.2       10 UNK        -0.4839 
     25 CA        -71.5442   29.2946  -76.8653 C.3       9 UNK         0.0222 
     26 CB        -70.0903   29.5439  -77.3202 C.3       9 UNK        -0.1966 
     27 N         -71.7325   27.8893  -76.4871 N.am      9 UNK        -0.4218 
     28 C         -71.1979   27.2439  -75.4367 C.2       9 UNK         0.5020 
     29 O         -70.4839   27.7942  -74.5972 O.2       9 UNK        -0.5274 
     30 CA        -71.5194   25.7437  -75.2663 C.3       8 UNK         0.0270 
     31 CB        -71.9941   25.4367  -73.8340 C.3       8 UNK        -0.1976 
     32 N         -72.5257   25.2658  -76.2176 N.am      8 UNK        -0.4313 
     33 C         -72.2773   24.8402  -77.4636 C.2       8 UNK         0.5041 
     34 O         -71.1451   24.7013  -77.9265 O.2       8 UNK        -0.5577 
     35 CA        -73.4993   24.5653  -78.3611 C.3       7 UNK         0.0284 
     36 CB        -73.8417   23.0675  -78.3542 C.3       7 UNK        -0.1958 
     37 N         -74.6882   25.3398  -77.9828 N.am      7 UNK        -0.4454 
     38 C         -74.7785   26.6782  -78.0349 C.2       7 UNK         0.5089 
     39 O         -73.8874   27.4019  -78.4769 O.2       7 UNK        -0.5125 
     40 CA        -76.0273   27.3222  -77.4069 C.3       6 UNK         0.0408 
     41 CB        -77.2049   27.3195  -78.3911 C.3       6 UNK        -0.1791 
     42 N         -76.4086   26.6620  -76.1543 N.am      6 UNK        -0.4762 
     43 C         -75.6740   26.7003  -75.0311 C.2       6 UNK         0.5007 
     44 O         -74.6596   27.3906  -74.9212 O.2       6 UNK        -0.5032 
     45 CA        -76.0937   25.7757  -73.8681 C.3       5 UNK         0.0783 
     46 C46       -76.5789   26.5562  -72.6194 C.3       11 UNK        -0.0857 
     47 S47       -75.2246   26.7930  -71.4118 S.3       11 UNK        -0.2512 
     48 C48       -76.1097   27.3962  -69.9345 C.3       11 UNK         0.0225 
     49 N         -77.0561   24.7540  -74.3040 N.am      5 UNK        -0.4615 
     50 C         -76.6779   23.5560  -74.7733 C.2       4 UNK         0.5053 
     51 O         -75.5026   23.2039  -74.8776 O.2       4 UNK        -0.5105 
     52 CA        -77.7864   22.5931  -75.2240 C.3       4 UNK         0.0263 
     53 CB        -78.6805   22.1826  -74.0432 C.3       4 UNK        -0.1981 
     54 N         -78.6209   23.1136  -76.3072 N.am      4 UNK        -0.4224 
     55 C         -78.2047   23.5504  -77.5027 C.2       3 UNK         0.4895 
     56 O         -77.0226   23.6492  -77.8266 O.2       3 UNK        -0.5091 
     57 CA        -79.2897   23.9879  -78.5035 C.3       3 UNK         0.0250 
     58 CB        -80.0514   22.7786  -79.0823 C.3       3 UNK        -0.1996 
     59 N         -80.1946   25.0115  -77.9609 N.am      3 UNK        -0.4254 
     60 C         -81.0780   24.8868  -76.9612 C.2       2 UNK         0.5004 
     61 O         -81.3606   23.8187  -76.4113 O.2       2 UNK        -0.5226 
     62 CA        -81.7353   26.1882  -76.4777 C.3       2 UNK         0.0269 
     63 CB        -83.0772   26.4115  -77.1936 C.3       2 UNK        -0.1926 
     64 N         -81.9551   26.1952  -75.0291 N.am      2 UNK        -0.4687 
     65 C         -81.0008   26.0777  -74.0930 C.2       1 UNK         0.5165 
     66 O         -79.7954   25.9450  -74.3441 O.2       1 UNK        -0.5079 
     67 H67       -78.6028   25.2398  -69.9598 H         1 UNK         0.0900 
     68 H68       -78.1658   23.8639  -70.9816 H         1 UNK         0.0900 
     69 H69       -79.2056   23.6336  -69.5741 H         1 UNK         0.0900 
     70 H70       -79.7473   26.5138  -71.5310 H         1 UNK         0.2959 
     71 H71       -82.2907   25.4037  -72.5466 H         1 UNK         0.1079 
     72 H72       -83.0406   27.6659  -72.8408 H         1 UNK         0.0837 
     73 H73       -82.4596   27.5006  -71.2244 H         1 UNK         0.0837 
     74 H74       -81.0716   30.4658  -70.6590 H         1 UNK         0.0685 
     75 H75       -80.9766   28.8060  -70.1281 H         1 UNK         0.0685 
     76 H76       -78.8365   27.6311  -70.0078 H         1 UNK         0.1434 
     77 H77       -75.2304   29.8586  -70.6198 H         1 UNK         0.1329 
     78 H78       -79.0209   31.6167  -71.5793 H         1 UNK         0.1335 
     79 H79       -76.9035   33.0008  -71.4120 H         1 UNK         0.0680 
     80 H80       -75.3652   32.2304  -71.1631 H         1 UNK         0.0680 
     81 H81       -75.5669   30.1246  -74.7198 H         1 UNK         0.1032 
     82 H82       -75.3842   29.7349  -73.0607 H         1 UNK         0.1032 
     83 H83       -73.4577   31.7708  -74.1825 H         1 UNK         0.0461 
     84 H84       -71.3823   29.4424  -71.6779 H         1 UNK         0.3453 
     85 H85       -71.6083   29.0255  -73.3579 H         1 UNK         0.3453 
     86 H86       -73.5234   29.0358  -75.2276 H         1 UNK         0.2984 
     87 H87       -72.1891   29.4625  -77.7286 H         1 UNK         0.0554 
     88 H88       -69.7906   28.8386  -78.0953 H         1 UNK         0.0847 
     89 H89       -69.3861   29.4525  -76.4926 H         1 UNK         0.0847 
     90 H90       -69.9751   30.5458  -77.7353 H         1 UNK         0.0847 
     91 H91       -72.3511   27.3723  -77.1021 H         1 UNK         0.3141 
     92 H92       -70.5893   25.1968  -75.4338 H         1 UNK         0.0743 
     93 H93       -72.8435   26.0549  -73.5449 H         1 UNK         0.0784 
     94 H94       -72.2822   24.3914  -73.7219 H         1 UNK         0.0784 
     95 H95       -71.1999   25.6307  -73.1123 H         1 UNK         0.0784 
     96 H96       -73.4903   25.3579  -75.9338 H         1 UNK         0.3213 
     97 H97       -73.2262   24.8501  -79.3793 H         1 UNK         0.0855 
     98 H98       -74.1691   22.7338  -77.3687 H         1 UNK         0.0814 
     99 H99       -72.9760   22.4655  -78.6337 H         1 UNK         0.0814 
    100 H100      -74.6366   22.8398  -79.0645 H         1 UNK         0.0814 
    101 H101      -75.4955   24.8020  -77.6757 H         1 UNK         0.3105 
    102 H102      -75.7869   28.3624  -77.1757 H         1 UNK         0.0547 
    103 H103      -76.9615   27.8973  -79.2837 H         1 UNK         0.0837 
    104 H104      -77.4539   26.3123  -78.7198 H         1 UNK         0.0837 
    105 H105      -78.0955   27.7665  -77.9496 H         1 UNK         0.0837 
    106 H106      -77.2238   26.0670  -76.1705 H         1 UNK         0.3020 
    107 H107      -75.1766   25.2552  -73.5836 H         1 UNK         0.1245 
    108 H108      -77.3702   26.0063  -72.1117 H         1 UNK         0.0781 
    109 H109      -77.0136   27.5222  -72.8858 H         1 UNK         0.0781 
    110 H110      -75.3833   27.6524  -69.1621 H         1 UNK         0.0836 
    111 H111      -76.7243   26.5948  -69.5248 H         1 UNK         0.0836 
    112 H112      -78.0413   25.0060  -74.2757 H         1 UNK         0.3022 
    113 H113      -77.2963   21.6935  -75.6018 H         1 UNK         0.0747 
    114 H114      -79.3487   21.3668  -74.3191 H         1 UNK         0.0793 
    115 H115      -78.0856   21.8406  -73.1951 H         1 UNK         0.0793 
    116 H116      -79.2980   23.0127  -73.6996 H         1 UNK         0.0793 
    117 H117      -79.6248   23.1384  -76.1423 H         1 UNK         0.3047 
    118 H118      -78.7734   24.4607  -79.3402 H         1 UNK         0.0822 
    119 H119      -80.7855   23.0924  -79.8243 H         1 UNK         0.0807 
    120 H120      -80.5754   22.2091  -78.3145 H         1 UNK         0.0807 
    121 H121      -79.3643   22.0913  -79.5775 H         1 UNK         0.0807 
    122 H122      -80.0613   25.9352  -78.3487 H         1 UNK         0.2946 
    123 H123      -81.0695   27.0234  -76.7073 H         1 UNK         0.1144 
    124 H124      -83.7876   25.6125  -76.9759 H         1 UNK         0.0793 
    125 H125      -82.9440   26.4419  -78.2760 H         1 UNK         0.0793 
    126 H126      -83.5333   27.3570  -76.8993 H         1 UNK         0.0793 
    127 H127      -82.9155   26.2788  -74.7301 H         1 UNK         0.2896 
@<TRIPOS>BOND
     1    1    2 1    
     2    1   67 1    
     3    1   68 1    
     4    1   69 1    
     5    2    3 2    
     6    2    4 am   BACKBONE|DICT|INTERRES
     7    4    5 1    
     8    4   70 1    
     9    5    6 1    
    10    5   65 1    
    11    5   71 1    
    12    6    7 1    
    13    6   72 1    
    14    6   73 1    
    15    7    8 1    
    16    8    9 1    
    17    8   74 1    
    18    8   75 1    
    19    9   10 ar   
    20    9   14 ar   
    21   10   11 ar   
    22   10   76 1    
    23   11   12 ar   
    24   11   48 1    
    25   12   13 ar   
    26   12   77 1    
    27   13   14 ar   
    28   13   15 1    
    29   14   78 1    
    30   15   16 1    
    31   15   79 1    
    32   15   80 1    
    33   16   17 1    
    34   17   18 1    
    35   17   81 1    
    36   17   82 1    
    37   18   19 1    
    38   18   22 1    
    39   18   83 1    
    40   19   20 am   BACKBONE|DICT|INTERRES
    41   19   21 2    
    42   20   84 1    
    43   20   85 1    
    44   22   23 am   BACKBONE|DICT|INTERRES
    45   22   86 1    
    46   23   24 2    
    47   23   25 1    
    48   25   26 1    
    49   25   27 1    
    50   25   87 1    
    51   26   88 1    
    52   26   89 1    
    53   26   90 1    
    54   27   28 am   BACKBONE|DICT|INTERRES
    55   27   91 1    
    56   28   29 2    
    57   28   30 1    
    58   30   31 1    
    59   30   32 1    
    60   30   92 1    
    61   31   93 1    
    62   31   94 1    
    63   31   95 1    
    64   32   33 am   BACKBONE|DICT|INTERRES
    65   32   96 1    
    66   33   34 2    
    67   33   35 1    
    68   35   36 1    
    69   35   37 1    
    70   35   97 1    
    71   36   98 1    
    72   36   99 1    
    73   36  100 1    
    74   37   38 am   BACKBONE|DICT|INTERRES
    75   37  101 1    
    76   38   39 2    
    77   38   40 1    
    78   40   41 1    
    79   40   42 1    
    80   40  102 1    
    81   41  103 1    
    82   41  104 1    
    83   41  105 1    
    84   42   43 am   BACKBONE|DICT|INTERRES
    85   42  106 1    
    86   43   44 2    
    87   43   45 1    
    88   45   46 1    
    89   45   49 1    
    90   45  107 1    
    91   46   47 1    
    92   46  108 1    
    93   46  109 1    
    94   47   48 1    
    95   48  110 1    
    96   48  111 1    
    97   49   50 am   BACKBONE|DICT|INTERRES
    98   49  112 1    
    99   50   51 2    
   100   50   52 1    
   101   52   53 1    
   102   52   54 1    
   103   52  113 1    
   104   53  114 1    
   105   53  115 1    
   106   53  116 1    
   107   54   55 am   BACKBONE|DICT|INTERRES
   108   54  117 1    
   109   55   56 2    
   110   55   57 1    
   111   57   58 1    
   112   57   59 1    
   113   57  118 1    
   114   58  119 1    
   115   58  120 1    
   116   58  121 1    
   117   59   60 am   BACKBONE|DICT|INTERRES
   118   59  122 1    
   119   60   61 2    
   120   60   62 1    
   121   62   63 1    
   122   62   64 1    
   123   62  123 1    
   124   63  124 1    
   125   63  125 1    
   126   63  126 1    
   127   64   65 am   BACKBONE|DICT|INTERRES
   128   64  127 1    
   129   65   66 2    
@<TRIPOS>SUBSTRUCTURE
     1 UNK         1 GROUP             0       ****    0 ROOT    
