@<TRIPOS>MOLECULE
3R135
127   129    1
SMALL
USER_CHARGES


@<TRIPOS>ATOM
      1 CA        -83.1353   26.4573  -73.7610 C.3       0 UNK        -0.1998 
      2 C         -82.1320   26.5106  -74.9025 C.2       0 UNK         0.4909 
      3 O         -82.3507   25.8839  -75.9402 O.2       0 UNK        -0.5240 
      4 N         -81.0275   27.2472  -74.7155 N.am      1 UNK        -0.4739 
      5 CA        -79.9115   27.3772  -75.6610 C.3       1 UNK         0.0864 
      6 C6        -78.7893   28.3012  -75.1242 C.3       11 UNK        -0.0881 
      7 S7        -79.3508   29.9908  -74.7191 S.3       11 UNK        -0.2682 
      8 C8        -79.7563   29.8874  -72.9405 C.3       11 UNK         0.0289 
      9 C9        -78.5762   29.4427  -72.0875 C.ar      11 UNK        -0.0687 
     10 C10       -78.5137   28.1369  -71.5892 C.ar      11 UNK        -0.0823 
     11 C11       -77.4268   27.7199  -70.8141 C.ar      11 UNK        -0.0830 
     12 C12       -76.4024   28.6288  -70.5285 C.ar      11 UNK        -0.1021 
     13 C13       -76.4543   29.9374  -71.0206 C.ar      11 UNK        -0.0753 
     14 C14       -77.5484   30.3405  -71.7913 C.ar      11 UNK        -0.0933 
     15 C15       -75.3244   30.9131  -70.7210 C.3       11 UNK         0.0166 
     16 S16       -74.5109   31.5508  -72.2259 S.3       11 UNK        -0.2615 
     17 C17       -74.0114   30.0291  -73.1044 C.3       11 UNK        -0.0865 
     18 CA        -72.5155   29.6643  -72.9135 C.3       10 UNK         0.0862 
     19 C         -72.2828   28.8648  -71.5969 C.2       10 UNK         0.5551 
     20 N         -72.1686   27.5425  -71.6472 N.am      10 UNK        -0.7319 
     21 O         -72.1799   29.4510  -70.5229 O.2       10 UNK        -0.5018 
     22 N         -71.9944   29.0007  -74.1170 N.am      10 UNK        -0.4509 
     23 C         -70.6982   28.7878  -74.3779 C.2       10 UNK         0.4899 
     24 O         -69.7743   29.1895  -73.6703 O.2       10 UNK        -0.4839 
     25 CA        -70.3820   27.9880  -75.6484 C.3       9 UNK         0.0222 
     26 CB        -70.6166   26.4869  -75.4095 C.3       9 UNK        -0.1966 
     27 N         -71.1917   28.4402  -76.7814 N.am      9 UNK        -0.4218 
     28 C         -70.8470   29.4374  -77.6090 C.2       9 UNK         0.5020 
     29 O         -69.7948   30.0714  -77.5167 O.2       9 UNK        -0.5274 
     30 CA        -71.8224   29.7789  -78.7510 C.3       8 UNK         0.0270 
     31 CB        -71.4046   29.0589  -80.0440 C.3       8 UNK        -0.1976 
     32 N         -73.2142   29.4433  -78.4429 N.am      8 UNK        -0.4313 
     33 C         -74.0015   30.1525  -77.6229 C.2       8 UNK         0.5041 
     34 O         -73.6589   31.2030  -77.0804 O.2       8 UNK        -0.5577 
     35 CA        -75.4019   29.5783  -77.3411 C.3       7 UNK         0.0284 
     36 CB        -76.4326   30.1464  -78.3299 C.3       7 UNK        -0.1958 
     37 N         -75.4629   28.1106  -77.3597 N.am      7 UNK        -0.4454 
     38 C         -74.8058   27.3220  -76.5011 C.2       7 UNK         0.5089 
     39 O         -73.9992   27.7369  -75.6643 O.2       7 UNK        -0.5125 
     40 CA        -75.0924   25.8220  -76.5663 C.3       6 UNK         0.0408 
     41 CB        -73.9647   25.0573  -77.2799 C.3       6 UNK        -0.1791 
     42 N         -75.2279   25.3966  -75.1816 N.am      6 UNK        -0.4762 
     43 C         -75.8269   24.2931  -74.7248 C.2       6 UNK         0.5007 
     44 O         -76.1918   23.3695  -75.4542 O.2       6 UNK        -0.5032 
     45 CA        -76.1118   24.2275  -73.2087 C.3       5 UNK         0.0783 
     46 C46       -75.6919   25.5214  -72.4487 C.3       11 UNK        -0.0857 
     47 S47       -75.8242   25.4063  -70.6343 S.3       11 UNK        -0.2512 
     48 C48       -77.3818   26.2907  -70.2796 C.3       11 UNK         0.0225 
     49 N         -77.5432   23.9576  -73.0864 N.am      5 UNK        -0.4615 
     50 C         -78.1119   23.0058  -72.3424 C.2       4 UNK         0.5053 
     51 O         -77.4851   22.2402  -71.6096 O.2       4 UNK        -0.5105 
     52 CA        -79.6408   22.8788  -72.4296 C.3       4 UNK         0.0263 
     53 CB        -80.3367   24.0054  -71.6464 C.3       4 UNK        -0.1981 
     54 N         -80.1224   22.8926  -73.8148 N.am      4 UNK        -0.4224 
     55 C         -80.9427   21.9711  -74.3434 C.2       3 UNK         0.4895 
     56 O         -81.3278   20.9729  -73.7325 O.2       3 UNK        -0.5091 
     57 CA        -81.4610   22.1887  -75.7796 C.3       3 UNK         0.0250 
     58 CB        -82.9600   22.5326  -75.7614 C.3       3 UNK        -0.1996 
     59 N         -80.7388   23.2322  -76.5107 N.am      3 UNK        -0.4254 
     60 C         -79.5512   23.0452  -77.1055 C.2       2 UNK         0.5004 
     61 O         -78.9987   21.9473  -77.1788 O.2       2 UNK        -0.5226 
     62 CA        -78.8463   24.2748  -77.7164 C.3       2 UNK         0.0269 
     63 CB        -78.9304   24.2386  -79.2511 C.3       2 UNK        -0.1926 
     64 N         -79.3286   25.5807  -77.2446 N.am      2 UNK        -0.4687 
     65 C         -79.3243   25.9891  -75.9691 C.2       1 UNK         0.5165 
     66 O         -78.9231   25.2989  -75.0316 O.2       1 UNK        -0.5079 
     67 H67       -82.8422   27.0972  -72.9290 H         1 UNK         0.0900 
     68 H68       -83.2241   25.4368  -73.3895 H         1 UNK         0.0900 
     69 H69       -84.1161   26.7806  -74.1088 H         1 UNK         0.0900 
     70 H70       -80.9095   27.7431  -73.8465 H         1 UNK         0.2959 
     71 H71       -80.3096   27.8090  -76.5817 H         1 UNK         0.1079 
     72 H72       -78.2919   27.8568  -74.2623 H         1 UNK         0.0837 
     73 H73       -78.0085   28.4059  -75.8793 H         1 UNK         0.0837 
     74 H74       -80.0869   30.8716  -72.6052 H         1 UNK         0.0685 
     75 H75       -80.6090   29.2248  -72.7938 H         1 UNK         0.0685 
     76 H76       -79.3106   27.4412  -71.8120 H         1 UNK         0.1434 
     77 H77       -75.5589   28.3109  -69.9305 H         1 UNK         0.1329 
     78 H78       -77.5904   31.3503  -72.1766 H         1 UNK         0.1335 
     79 H79       -75.7280   31.7564  -70.1593 H         1 UNK         0.0680 
     80 H80       -74.5751   30.4526  -70.0769 H         1 UNK         0.0680 
     81 H81       -74.2086   30.2293  -74.1591 H         1 UNK         0.1032 
     82 H82       -74.6619   29.1892  -72.8556 H         1 UNK         0.1032 
     83 H83       -71.9510   30.5940  -72.8180 H         1 UNK         0.0461 
     84 H84       -72.0086   27.0290  -70.7953 H         1 UNK         0.3453 
     85 H85       -72.2232   27.0589  -72.5276 H         1 UNK         0.3453 
     86 H86       -72.6924   28.6013  -74.7402 H         1 UNK         0.2984 
     87 H87       -69.3241   28.1257  -75.8825 H         1 UNK         0.0554 
     88 H88       -70.3798   25.9014  -76.2980 H         1 UNK         0.0847 
     89 H89       -71.6488   26.2731  -75.1306 H         1 UNK         0.0847 
     90 H90       -69.9812   26.1194  -74.6025 H         1 UNK         0.0847 
     91 H91       -72.1044   28.0200  -76.8850 H         1 UNK         0.3141 
     92 H92       -71.7580   30.8552  -78.9265 H         1 UNK         0.0743 
     93 H93       -70.3793   29.3127  -80.3173 H         1 UNK         0.0784 
     94 H94       -71.4539   27.9742  -79.9388 H         1 UNK         0.0784 
     95 H95       -72.0406   29.3456  -80.8817 H         1 UNK         0.0784 
     96 H96       -73.5913   28.6067  -78.8640 H         1 UNK         0.3213 
     97 H97       -75.6842   29.9045  -76.3371 H         1 UNK         0.0855 
     98 H98       -76.4189   31.2373  -78.3219 H         1 UNK         0.0814 
     99 H99       -77.4455   29.8378  -78.0704 H         1 UNK         0.0814 
    100 H100      -76.2328   29.8260  -79.3531 H         1 UNK         0.0814 
    101 H101      -76.0903   27.6904  -78.0306 H         1 UNK         0.3105 
    102 H102      -76.0370   25.6595  -77.0869 H         1 UNK         0.0547 
    103 H103      -73.8370   25.4120  -78.3032 H         1 UNK         0.0837 
    104 H104      -73.0088   25.1743  -76.7702 H         1 UNK         0.0837 
    105 H105      -74.1824   23.9907  -77.3342 H         1 UNK         0.0837 
    106 H106      -74.9372   26.1096  -74.5244 H         1 UNK         0.3020 
    107 H107      -75.5344   23.3849  -72.8218 H         1 UNK         0.1245 
    108 H108      -76.2633   26.3795  -72.8063 H         1 UNK         0.0781 
    109 H109      -74.6428   25.7524  -72.6419 H         1 UNK         0.0781 
    110 H110      -77.5303   26.3167  -69.1995 H         1 UNK         0.0836 
    111 H111      -78.2042   25.7036  -70.6854 H         1 UNK         0.0836 
    112 H112      -78.1220   24.4975  -73.7287 H         1 UNK         0.3022 
    113 H113      -79.8993   21.9330  -71.9486 H         1 UNK         0.0747 
    114 H114      -81.4166   23.8584  -71.6240 H         1 UNK         0.0793 
    115 H115      -79.9940   24.0326  -70.6114 H         1 UNK         0.0793 
    116 H116      -80.1445   24.9837  -72.0883 H         1 UNK         0.0793 
    117 H117      -79.8126   23.6647  -74.3964 H         1 UNK         0.3047 
    118 H118      -81.3432   21.2426  -76.3125 H         1 UNK         0.0822 
    119 H119      -83.3472   22.6822  -76.7694 H         1 UNK         0.0807 
    120 H120      -83.1611   23.4365  -75.1863 H         1 UNK         0.0807 
    121 H121      -83.5393   21.7266  -75.3091 H         1 UNK         0.0807 
    122 H122      -81.1429   24.1627  -76.4954 H         1 UNK         0.2946 
    123 H123      -77.7966   24.1891  -77.4323 H         1 UNK         0.1144 
    124 H124      -78.3364   25.0340  -79.7015 H         1 UNK         0.0793 
    125 H125      -79.9581   24.3446  -79.6005 H         1 UNK         0.0793 
    126 H126      -78.5494   23.2938  -79.6420 H         1 UNK         0.0793 
    127 H127      -79.7206   26.1902  -77.9486 H         1 UNK         0.2896 
@<TRIPOS>BOND
     1    1    2 1    
     2    1   67 1    
     3    1   68 1    
     4    1   69 1    
     5    2    3 2    
     6    2    4 am   BACKBONE|DICT|INTERRES
     7    4    5 1    
     8    4   70 1    
     9    5    6 1    
    10    5   65 1    
    11    5   71 1    
    12    6    7 1    
    13    6   72 1    
    14    6   73 1    
    15    7    8 1    
    16    8    9 1    
    17    8   74 1    
    18    8   75 1    
    19    9   10 ar   
    20    9   14 ar   
    21   10   11 ar   
    22   10   76 1    
    23   11   12 ar   
    24   11   48 1    
    25   12   13 ar   
    26   12   77 1    
    27   13   14 ar   
    28   13   15 1    
    29   14   78 1    
    30   15   16 1    
    31   15   79 1    
    32   15   80 1    
    33   16   17 1    
    34   17   18 1    
    35   17   81 1    
    36   17   82 1    
    37   18   19 1    
    38   18   22 1    
    39   18   83 1    
    40   19   20 am   BACKBONE|DICT|INTERRES
    41   19   21 2    
    42   20   84 1    
    43   20   85 1    
    44   22   23 am   BACKBONE|DICT|INTERRES
    45   22   86 1    
    46   23   24 2    
    47   23   25 1    
    48   25   26 1    
    49   25   27 1    
    50   25   87 1    
    51   26   88 1    
    52   26   89 1    
    53   26   90 1    
    54   27   28 am   BACKBONE|DICT|INTERRES
    55   27   91 1    
    56   28   29 2    
    57   28   30 1    
    58   30   31 1    
    59   30   32 1    
    60   30   92 1    
    61   31   93 1    
    62   31   94 1    
    63   31   95 1    
    64   32   33 am   BACKBONE|DICT|INTERRES
    65   32   96 1    
    66   33   34 2    
    67   33   35 1    
    68   35   36 1    
    69   35   37 1    
    70   35   97 1    
    71   36   98 1    
    72   36   99 1    
    73   36  100 1    
    74   37   38 am   BACKBONE|DICT|INTERRES
    75   37  101 1    
    76   38   39 2    
    77   38   40 1    
    78   40   41 1    
    79   40   42 1    
    80   40  102 1    
    81   41  103 1    
    82   41  104 1    
    83   41  105 1    
    84   42   43 am   BACKBONE|DICT|INTERRES
    85   42  106 1    
    86   43   44 2    
    87   43   45 1    
    88   45   46 1    
    89   45   49 1    
    90   45  107 1    
    91   46   47 1    
    92   46  108 1    
    93   46  109 1    
    94   47   48 1    
    95   48  110 1    
    96   48  111 1    
    97   49   50 am   BACKBONE|DICT|INTERRES
    98   49  112 1    
    99   50   51 2    
   100   50   52 1    
   101   52   53 1    
   102   52   54 1    
   103   52  113 1    
   104   53  114 1    
   105   53  115 1    
   106   53  116 1    
   107   54   55 am   BACKBONE|DICT|INTERRES
   108   54  117 1    
   109   55   56 2    
   110   55   57 1    
   111   57   58 1    
   112   57   59 1    
   113   57  118 1    
   114   58  119 1    
   115   58  120 1    
   116   58  121 1    
   117   59   60 am   BACKBONE|DICT|INTERRES
   118   59  122 1    
   119   60   61 2    
   120   60   62 1    
   121   62   63 1    
   122   62   64 1    
   123   62  123 1    
   124   63  124 1    
   125   63  125 1    
   126   63  126 1    
   127   64   65 am   BACKBONE|DICT|INTERRES
   128   64  127 1    
   129   65   66 2    
@<TRIPOS>SUBSTRUCTURE
     1 UNK         1 GROUP             0       ****    0 ROOT    
