@<TRIPOS>MOLECULE
3R135
127   129    1
SMALL
USER_CHARGES


@<TRIPOS>ATOM
      1 CA        -81.8959   21.0203  -69.7072 C.3       0 UNK        -0.1998 
      2 C         -81.5941   22.4764  -70.0286 C.2       0 UNK         0.4909 
      3 O         -82.1821   23.3710  -69.4205 O.2       0 UNK        -0.5240 
      4 N         -80.6777   22.7191  -70.9762 N.am      1 UNK        -0.4739 
      5 CA        -80.2822   24.0542  -71.4432 C.3       1 UNK         0.0864 
      6 C6        -78.9465   23.9797  -72.2349 C.3       11 UNK        -0.0881 
      7 S7        -78.4228   25.4806  -73.1336 S.3       11 UNK        -0.2682 
      8 C8        -78.1757   26.6688  -71.7747 C.3       11 UNK         0.0289 
      9 C9        -77.6936   28.0327  -72.2592 C.ar      11 UNK        -0.0687 
     10 C10       -78.2664   28.6474  -73.3781 C.ar      11 UNK        -0.0823 
     11 C11       -77.8215   29.8996  -73.8161 C.ar      11 UNK        -0.0830 
     12 C12       -76.8216   30.5603  -73.0948 C.ar      11 UNK        -0.1021 
     13 C13       -76.2621   29.9726  -71.9563 C.ar      11 UNK        -0.0753 
     14 C14       -76.6941   28.7061  -71.5519 C.ar      11 UNK        -0.0933 
     15 C15       -75.2222   30.7143  -71.1302 C.3       11 UNK         0.0166 
     16 S16       -73.5286   30.3504  -71.6835 S.3       11 UNK        -0.2615 
     17 C17       -73.2215   31.6668  -72.9150 C.3       11 UNK        -0.0865 
     18 CA        -73.3153   31.1836  -74.3934 C.3       10 UNK         0.0862 
     19 C         -73.0934   32.3306  -75.4250 C.2       10 UNK         0.5551 
     20 N         -73.7592   33.4656  -75.2544 N.am      10 UNK        -0.7319 
     21 O         -72.3566   32.2021  -76.4014 O.2       10 UNK        -0.5018 
     22 N         -72.5049   29.9896  -74.6738 N.am      10 UNK        -0.4509 
     23 C         -71.1822   29.8404  -74.5244 C.2       10 UNK         0.4899 
     24 O         -70.4281   30.7096  -74.0828 O.2       10 UNK        -0.4839 
     25 CA        -70.6172   28.4718  -74.9541 C.3       9 UNK         0.0222 
     26 CB        -69.1826   28.2092  -74.4483 C.3       9 UNK        -0.1966 
     27 N         -71.5256   27.3695  -74.6145 N.am      9 UNK        -0.4218 
     28 C         -71.8739   26.9259  -73.3961 C.2       9 UNK         0.5020 
     29 O         -71.3683   27.3177  -72.3438 O.2       9 UNK        -0.5274 
     30 CA        -72.9900   25.8624  -73.3340 C.3       8 UNK         0.0270 
     31 CB        -74.3210   26.5113  -72.9196 C.3       8 UNK        -0.1976 
     32 N         -73.1863   25.1389  -74.5939 N.am      8 UNK        -0.4313 
     33 C         -72.3127   24.2698  -75.1227 C.2       8 UNK         0.5041 
     34 O         -71.2729   23.9147  -74.5667 O.2       8 UNK        -0.5577 
     35 CA        -72.6381   23.7370  -76.5262 C.3       7 UNK         0.0284 
     36 CB        -73.5838   22.5282  -76.4452 C.3       7 UNK        -0.1958 
     37 N         -73.2271   24.7798  -77.3715 N.am      7 UNK        -0.4454 
     38 C         -72.5211   25.7517  -77.9682 C.2       7 UNK         0.5089 
     39 O         -71.2948   25.8383  -77.9127 O.2       7 UNK        -0.5125 
     40 CA        -73.3113   26.8235  -78.7410 C.3       6 UNK         0.0408 
     41 CB        -73.5021   26.3984  -80.2052 C.3       6 UNK        -0.1791 
     42 N         -74.6161   27.1257  -78.1473 N.am      6 UNK        -0.4762 
     43 C         -74.7931   27.7279  -76.9618 C.2       6 UNK         0.5007 
     44 O         -73.8687   28.1147  -76.2500 O.2       6 UNK        -0.5032 
     45 CA        -76.2434   27.8778  -76.4654 C.3       5 UNK         0.0783 
     46 C46       -76.8435   29.2190  -76.9567 C.3       11 UNK        -0.0857 
     47 S47       -78.5894   29.4492  -76.4748 S.3       11 UNK        -0.2512 
     48 C48       -78.4504   30.5638  -75.0367 C.3       11 UNK         0.0225 
     49 N         -77.0789   26.7223  -76.8122 N.am      5 UNK        -0.4615 
     50 C         -76.8555   25.4552  -76.4415 C.2       4 UNK         0.5053 
     51 O         -75.8388   25.0948  -75.8445 O.2       4 UNK        -0.5105 
     52 CA        -77.9481   24.4294  -76.8019 C.3       4 UNK         0.0263 
     53 CB        -77.7306   23.0674  -76.1171 C.3       4 UNK        -0.1981 
     54 N         -79.2921   24.9207  -76.4744 N.am      4 UNK        -0.4224 
     55 C         -80.0357   25.7038  -77.2694 C.2       3 UNK         0.4895 
     56 O         -79.6249   26.1351  -78.3477 O.2       3 UNK        -0.5091 
     57 CA        -81.4530   26.0791  -76.8009 C.3       3 UNK         0.0250 
     58 CB        -82.4573   26.0811  -77.9744 C.3       3 UNK        -0.1996 
     59 N         -81.9380   25.2110  -75.7220 N.am      3 UNK        -0.4254 
     60 C         -82.9235   25.5327  -74.8733 C.2       2 UNK         0.5004 
     61 O         -83.5258   26.6070  -74.8898 O.2       2 UNK        -0.5226 
     62 CA        -83.2976   24.4741  -73.8220 C.3       2 UNK         0.0269 
     63 CB        -84.0279   23.2836  -74.4665 C.3       2 UNK        -0.1926 
     64 N         -82.1435   23.9927  -73.0571 N.am      2 UNK        -0.4687 
     65 C         -81.4309   24.7510  -72.2090 C.2       1 UNK         0.5165 
     66 O         -81.6740   25.9381  -71.9871 O.2       1 UNK        -0.5079 
     67 H67       -81.6871   20.8170  -68.6572 H         1 UNK         0.0900 
     68 H68       -81.2986   20.3364  -70.3099 H         1 UNK         0.0900 
     69 H69       -82.9479   20.8058  -69.8934 H         1 UNK         0.0900 
     70 H70       -80.2210   21.9391  -71.4277 H         1 UNK         0.2959 
     71 H71       -80.0989   24.6618  -70.5541 H         1 UNK         0.1079 
     72 H72       -78.1382   23.6896  -71.5617 H         1 UNK         0.0837 
     73 H73       -79.0078   23.1823  -72.9770 H         1 UNK         0.0837 
     74 H74       -79.1132   26.8089  -71.2365 H         1 UNK         0.0685 
     75 H75       -77.4640   26.2410  -71.0669 H         1 UNK         0.0685 
     76 H76       -79.0583   28.1450  -73.9165 H         1 UNK         0.1434 
     77 H77       -76.4906   31.5414  -73.4057 H         1 UNK         0.1329 
     78 H78       -76.2592   28.2514  -70.6723 H         1 UNK         0.1335 
     79 H79       -75.4127   31.7881  -71.1463 H         1 UNK         0.0680 
     80 H80       -75.3098   30.4166  -70.0841 H         1 UNK         0.0680 
     81 H81       -72.2314   32.0806  -72.7183 H         1 UNK         0.1032 
     82 H82       -73.9159   32.4868  -72.7322 H         1 UNK         0.1032 
     83 H83       -74.3392   30.8512  -74.5647 H         1 UNK         0.0461 
     84 H84       -73.6303   34.2074  -75.9250 H         1 UNK         0.3453 
     85 H85       -74.3920   33.5990  -74.4825 H         1 UNK         0.3453 
     86 H86       -73.0115   29.2301  -75.1234 H         1 UNK         0.2984 
     87 H87       -70.5776   28.4937  -76.0442 H         1 UNK         0.0554 
     88 H88       -68.8228   27.2305  -74.7657 H         1 UNK         0.0847 
     89 H89       -69.1192   28.2552  -73.3609 H         1 UNK         0.0847 
     90 H90       -68.4896   28.9531  -74.8428 H         1 UNK         0.0847 
     91 H91       -72.0593   27.0049  -75.3927 H         1 UNK         0.3141 
     92 H92       -72.7100   25.1352  -72.5691 H         1 UNK         0.0743 
     93 H93       -74.6324   27.2813  -73.6257 H         1 UNK         0.0784 
     94 H94       -75.1237   25.7765  -72.8501 H         1 UNK         0.0784 
     95 H95       -74.2313   26.9895  -71.9435 H         1 UNK         0.0784 
     96 H96       -74.0610   25.3022  -75.0871 H         1 UNK         0.3213 
     97 H97       -71.7043   23.4037  -76.9848 H         1 UNK         0.0855 
     98 H98       -74.5102   22.7721  -75.9258 H         1 UNK         0.0814 
     99 H99       -73.1155   21.7085  -75.8989 H         1 UNK         0.0814 
    100 H100      -73.8395   22.1531  -77.4362 H         1 UNK         0.0814 
    101 H101      -74.2369   24.8203  -77.4072 H         1 UNK         0.3105 
    102 H102      -72.7188   27.7410  -78.7291 H         1 UNK         0.0547 
    103 H103      -72.5413   26.1916  -80.6789 H         1 UNK         0.0837 
    104 H104      -74.1074   25.4951  -80.2902 H         1 UNK         0.0837 
    105 H105      -73.9848   27.1834  -80.7874 H         1 UNK         0.0837 
    106 H106      -75.4349   26.8343  -78.6622 H         1 UNK         0.3020 
    107 H107      -76.1990   27.9106  -75.3746 H         1 UNK         0.1245 
    108 H108      -76.2548   30.0595  -76.5834 H         1 UNK         0.0781 
    109 H109      -76.7985   29.2800  -78.0459 H         1 UNK         0.0781 
    110 H110      -79.4497   30.9064  -74.7654 H         1 UNK         0.0836 
    111 H111      -77.8914   31.4536  -75.3307 H         1 UNK         0.0836 
    112 H112      -77.9347   26.9236  -77.3160 H         1 UNK         0.3022 
    113 H113      -77.8842   24.2642  -77.8795 H         1 UNK         0.0747 
    114 H114      -78.5389   22.3721  -76.3441 H         1 UNK         0.0793 
    115 H115      -76.8061   22.6040  -76.4611 H         1 UNK         0.0793 
    116 H116      -77.6620   23.1641  -75.0336 H         1 UNK         0.0793 
    117 H117      -79.6229   24.7142  -75.5437 H         1 UNK         0.3047 
    118 H118      -81.3756   27.0971  -76.4125 H         1 UNK         0.0822 
    119 H119      -83.4441   26.4210  -77.6603 H         1 UNK         0.0807 
    120 H120      -82.5683   25.0861  -78.4065 H         1 UNK         0.0807 
    121 H121      -82.1340   26.7508  -78.7724 H         1 UNK         0.0807 
    122 H122      -81.5284   24.2899  -75.6603 H         1 UNK         0.2946 
    123 H123      -83.9866   24.9485  -73.1188 H         1 UNK         0.1144 
    124 H124      -84.8915   23.6215  -75.0413 H         1 UNK         0.0793 
    125 H125      -84.3970   22.5903  -73.7104 H         1 UNK         0.0793 
    126 H126      -83.3827   22.7254  -75.1458 H         1 UNK         0.0793 
    127 H127      -81.8986   23.0181  -73.1543 H         1 UNK         0.2896 
@<TRIPOS>BOND
     1    1    2 1    
     2    1   67 1    
     3    1   68 1    
     4    1   69 1    
     5    2    3 2    
     6    2    4 am   BACKBONE|DICT|INTERRES
     7    4    5 1    
     8    4   70 1    
     9    5    6 1    
    10    5   65 1    
    11    5   71 1    
    12    6    7 1    
    13    6   72 1    
    14    6   73 1    
    15    7    8 1    
    16    8    9 1    
    17    8   74 1    
    18    8   75 1    
    19    9   10 ar   
    20    9   14 ar   
    21   10   11 ar   
    22   10   76 1    
    23   11   12 ar   
    24   11   48 1    
    25   12   13 ar   
    26   12   77 1    
    27   13   14 ar   
    28   13   15 1    
    29   14   78 1    
    30   15   16 1    
    31   15   79 1    
    32   15   80 1    
    33   16   17 1    
    34   17   18 1    
    35   17   81 1    
    36   17   82 1    
    37   18   19 1    
    38   18   22 1    
    39   18   83 1    
    40   19   20 am   BACKBONE|DICT|INTERRES
    41   19   21 2    
    42   20   84 1    
    43   20   85 1    
    44   22   23 am   BACKBONE|DICT|INTERRES
    45   22   86 1    
    46   23   24 2    
    47   23   25 1    
    48   25   26 1    
    49   25   27 1    
    50   25   87 1    
    51   26   88 1    
    52   26   89 1    
    53   26   90 1    
    54   27   28 am   BACKBONE|DICT|INTERRES
    55   27   91 1    
    56   28   29 2    
    57   28   30 1    
    58   30   31 1    
    59   30   32 1    
    60   30   92 1    
    61   31   93 1    
    62   31   94 1    
    63   31   95 1    
    64   32   33 am   BACKBONE|DICT|INTERRES
    65   32   96 1    
    66   33   34 2    
    67   33   35 1    
    68   35   36 1    
    69   35   37 1    
    70   35   97 1    
    71   36   98 1    
    72   36   99 1    
    73   36  100 1    
    74   37   38 am   BACKBONE|DICT|INTERRES
    75   37  101 1    
    76   38   39 2    
    77   38   40 1    
    78   40   41 1    
    79   40   42 1    
    80   40  102 1    
    81   41  103 1    
    82   41  104 1    
    83   41  105 1    
    84   42   43 am   BACKBONE|DICT|INTERRES
    85   42  106 1    
    86   43   44 2    
    87   43   45 1    
    88   45   46 1    
    89   45   49 1    
    90   45  107 1    
    91   46   47 1    
    92   46  108 1    
    93   46  109 1    
    94   47   48 1    
    95   48  110 1    
    96   48  111 1    
    97   49   50 am   BACKBONE|DICT|INTERRES
    98   49  112 1    
    99   50   51 2    
   100   50   52 1    
   101   52   53 1    
   102   52   54 1    
   103   52  113 1    
   104   53  114 1    
   105   53  115 1    
   106   53  116 1    
   107   54   55 am   BACKBONE|DICT|INTERRES
   108   54  117 1    
   109   55   56 2    
   110   55   57 1    
   111   57   58 1    
   112   57   59 1    
   113   57  118 1    
   114   58  119 1    
   115   58  120 1    
   116   58  121 1    
   117   59   60 am   BACKBONE|DICT|INTERRES
   118   59  122 1    
   119   60   61 2    
   120   60   62 1    
   121   62   63 1    
   122   62   64 1    
   123   62  123 1    
   124   63  124 1    
   125   63  125 1    
   126   63  126 1    
   127   64   65 am   BACKBONE|DICT|INTERRES
   128   64  127 1    
   129   65   66 2    
@<TRIPOS>SUBSTRUCTURE
     1 UNK         1 GROUP             0       ****    0 ROOT    
