@<TRIPOS>MOLECULE
3R135
127   129    1
SMALL
USER_CHARGES


@<TRIPOS>ATOM
      1 CA        -82.6896   27.1384  -71.0801 C.3       0 UNK        -0.1998 
      2 C         -81.9023   27.1659  -72.3809 C.2       0 UNK         0.4909 
      3 O         -80.8929   26.4724  -72.4929 O.2       0 UNK        -0.5240 
      4 N         -82.3593   27.9634  -73.3564 N.am      1 UNK        -0.4739 
      5 CA        -81.7915   28.1789  -74.6970 C.3       1 UNK         0.0864 
      6 C6        -80.3572   28.7756  -74.6940 C.3       11 UNK        -0.0881 
      7 S7        -80.3649   30.5691  -74.3438 S.3       11 UNK        -0.2682 
      8 C8        -80.0801   30.6596  -72.5449 C.3       11 UNK         0.0289 
      9 C9        -78.7211   30.1088  -72.1374 C.ar      11 UNK        -0.0687 
     10 C10       -78.6424   28.9556  -71.3541 C.ar      11 UNK        -0.0823 
     11 C11       -77.4023   28.4092  -71.0134 C.ar      11 UNK        -0.0830 
     12 C12       -76.2317   29.0412  -71.4408 C.ar      11 UNK        -0.1021 
     13 C13       -76.2962   30.2034  -72.2167 C.ar      11 UNK        -0.0753 
     14 C14       -77.5440   30.7383  -72.5532 C.ar      11 UNK        -0.0933 
     15 C15       -75.0218   30.8411  -72.7468 C.3       11 UNK         0.0166 
     16 S16       -73.9624   31.4740  -71.4084 S.3       11 UNK        -0.2615 
     17 C17       -72.4692   31.9262  -72.3630 C.3       11 UNK        -0.0865 
     18 CA        -71.3155   30.8884  -72.2808 C.3       10 UNK         0.0862 
     19 C         -70.5540   30.9457  -70.9263 C.2       10 UNK         0.5551 
     20 N         -69.7478   31.9777  -70.7168 N.am      10 UNK        -0.7319 
     21 O         -70.6958   30.0830  -70.0608 O.2       10 UNK        -0.5018 
     22 N         -71.7853   29.5374  -72.6131 N.am      10 UNK        -0.4509 
     23 C         -71.0202   28.5415  -73.0698 C.2       10 UNK         0.4899 
     24 O         -69.8315   28.6720  -73.3672 O.2       10 UNK        -0.4839 
     25 CA        -71.6745   27.1544  -73.2234 C.3       9 UNK         0.0222 
     26 CB        -73.0948   27.0362  -72.6238 C.3       9 UNK        -0.1966 
     27 N         -71.6466   26.7075  -74.6199 N.am      9 UNK        -0.4218 
     28 C         -72.2471   27.2803  -75.6747 C.2       9 UNK         0.5020 
     29 O         -72.9902   28.2600  -75.6003 O.2       9 UNK        -0.5274 
     30 CA        -71.9582   26.6758  -77.0576 C.3       8 UNK         0.0270 
     31 CB        -70.8915   25.5569  -77.0647 C.3       8 UNK        -0.1976 
     32 N         -73.2029   26.1717  -77.6318 N.am      8 UNK        -0.4313 
     33 C         -73.4801   26.1355  -78.9401 C.2       8 UNK         0.5041 
     34 O         -72.7302   26.5827  -79.8100 O.2       8 UNK        -0.5577 
     35 CA        -74.7947   25.4632  -79.3711 C.3       7 UNK         0.0284 
     36 CB        -74.5943   23.9473  -79.5260 C.3       7 UNK        -0.1958 
     37 N         -75.9249   25.7147  -78.4750 N.am      7 UNK        -0.4454 
     38 C         -76.5536   26.8933  -78.3610 C.2       7 UNK         0.5089 
     39 O         -76.2019   27.9204  -78.9417 O.2       7 UNK        -0.5125 
     40 CA        -77.8077   26.9212  -77.4737 C.3       6 UNK         0.0408 
     41 CB        -79.0107   26.3365  -78.2301 C.3       6 UNK        -0.1791 
     42 N         -77.5898   26.1897  -76.2244 N.am      6 UNK        -0.4762 
     43 C         -77.0214   26.7340  -75.1382 C.2       6 UNK         0.5007 
     44 O         -76.7781   27.9356  -75.0379 O.2       6 UNK        -0.5032 
     45 CA        -76.6076   25.7943  -73.9855 C.3       5 UNK         0.0783 
     46 C46       -77.5927   25.8335  -72.7899 C.3       11 UNK        -0.0857 
     47 S47       -76.6833   25.7119  -71.2089 S.3       11 UNK        -0.2512 
     48 C48       -77.3414   27.1056  -70.2286 C.3       11 UNK         0.0225 
     49 N         -76.3831   24.4190  -74.4323 N.am      5 UNK        -0.4615 
     50 C         -75.3330   24.0113  -75.1539 C.2       4 UNK         0.5053 
     51 O         -74.4150   24.7505  -75.5023 O.2       4 UNK        -0.5105 
     52 CA        -75.3241   22.5394  -75.6017 C.3       4 UNK         0.0263 
     53 CB        -74.5734   21.6754  -74.5766 C.3       4 UNK        -0.1981 
     54 N         -76.6629   21.9825  -75.8247 N.am      4 UNK        -0.4224 
     55 C         -77.5584   22.4555  -76.7036 C.2       3 UNK         0.4895 
     56 O         -77.3334   23.4103  -77.4500 O.2       3 UNK        -0.5091 
     57 CA        -78.9441   21.7798  -76.7468 C.3       3 UNK         0.0250 
     58 CB        -79.1567   20.6998  -75.6604 C.3       3 UNK        -0.1996 
     59 N         -80.0433   22.7544  -76.7075 N.am      3 UNK        -0.4254 
     60 C         -80.2608   23.6915  -75.7718 C.2       2 UNK         0.5004 
     61 O         -79.5201   23.8927  -74.8073 O.2       2 UNK        -0.5226 
     62 CA        -81.5456   24.5133  -75.9332 C.3       2 UNK         0.0269 
     63 CB        -82.7623   23.7240  -75.4185 C.3       2 UNK        -0.1926 
     64 N         -81.4528   25.7739  -75.1951 N.am      2 UNK        -0.4687 
     65 C         -81.9210   26.9508  -75.6254 C.2       1 UNK         0.5165 
     66 O         -82.4708   27.0938  -76.7188 O.2       1 UNK        -0.5079 
     67 H67       -82.0506   27.4375  -70.2497 H         1 UNK         0.0900 
     68 H68       -83.5478   27.8095  -71.1066 H         1 UNK         0.0900 
     69 H69       -83.0524   26.1298  -70.8843 H         1 UNK         0.0900 
     70 H70       -83.2119   28.4787  -73.1860 H         1 UNK         0.2959 
     71 H71       -82.4445   28.9262  -75.1522 H         1 UNK         0.1079 
     72 H72       -79.6988   28.2513  -74.0020 H         1 UNK         0.0837 
     73 H73       -79.8912   28.6625  -75.6747 H         1 UNK         0.0837 
     74 H74       -80.8866   30.1362  -72.0298 H         1 UNK         0.0685 
     75 H75       -80.1460   31.7025  -72.2325 H         1 UNK         0.0685 
     76 H76       -79.5494   28.4593  -71.0390 H         1 UNK         0.1434 
     77 H77       -75.2714   28.6127  -71.1911 H         1 UNK         0.1329 
     78 H78       -77.6046   31.6256  -73.1683 H         1 UNK         0.1335 
     79 H79       -74.4794   30.1005  -73.3359 H         1 UNK         0.0680 
     80 H80       -75.2553   31.6610  -73.4280 H         1 UNK         0.0680 
     81 H81       -72.1307   32.9082  -72.0272 H         1 UNK         0.1032 
     82 H82       -72.7462   32.0690  -73.4087 H         1 UNK         0.1032 
     83 H83       -70.5889   31.1678  -73.0468 H         1 UNK         0.0461 
     84 H84       -69.6184   32.6917  -71.4168 H         1 UNK         0.3453 
     85 H85       -69.2496   32.0395  -69.8425 H         1 UNK         0.3453 
     86 H86       -72.7412   29.3395  -72.3610 H         1 UNK         0.2984 
     87 H87       -71.0364   26.4625  -72.6719 H         1 UNK         0.0554 
     88 H88       -73.1007   27.3003  -71.5655 H         1 UNK         0.0847 
     89 H89       -73.4576   26.0106  -72.6938 H         1 UNK         0.0847 
     90 H90       -73.8159   27.6759  -73.1330 H         1 UNK         0.0847 
     91 H91       -71.0417   25.9207  -74.8077 H         1 UNK         0.3141 
     92 H92       -71.5886   27.5008  -77.6702 H         1 UNK         0.0743 
     93 H93       -69.9472   25.9024  -76.6416 H         1 UNK         0.0784 
     94 H94       -71.2172   24.6796  -76.5038 H         1 UNK         0.0784 
     95 H95       -70.6768   25.2304  -78.0825 H         1 UNK         0.0784 
     96 H96       -73.8622   25.7801  -76.9603 H         1 UNK         0.3213 
     97 H97       -75.0586   25.8656  -80.3518 H         1 UNK         0.0855 
     98 H98       -74.3036   23.4821  -78.5848 H         1 UNK         0.0814 
     99 H99       -73.8085   23.7310  -80.2510 H         1 UNK         0.0814 
    100 H100      -75.5033   23.4580  -79.8766 H         1 UNK         0.0814 
    101 H101      -76.3267   24.9068  -78.0051 H         1 UNK         0.3105 
    102 H102      -78.0371   27.9654  -77.2506 H         1 UNK         0.0547 
    103 H103      -78.8766   25.2817  -78.4695 H         1 UNK         0.0837 
    104 H104      -79.1708   26.8641  -79.1713 H         1 UNK         0.0837 
    105 H105      -79.9254   26.4358  -77.6514 H         1 UNK         0.0837 
    106 H106      -77.7387   25.1877  -76.2450 H         1 UNK         0.3020 
    107 H107      -75.6464   26.1908  -73.6556 H         1 UNK         0.1245 
    108 H108      -78.3149   25.0182  -72.8351 H         1 UNK         0.0781 
    109 H109      -78.1996   26.7361  -72.8067 H         1 UNK         0.0781 
    110 H110      -76.7164   27.2450  -69.3456 H         1 UNK         0.0836 
    111 H111      -78.3315   26.8313  -69.8608 H         1 UNK         0.0836 
    112 H112      -77.1247   23.7621  -74.2305 H         1 UNK         0.3022 
    113 H113      -74.7845   22.4871  -76.5480 H         1 UNK         0.0747 
    114 H114      -74.4758   20.6453  -74.9198 H         1 UNK         0.0793 
    115 H115      -73.5644   22.0563  -74.4110 H         1 UNK         0.0793 
    116 H116      -75.0792   21.6628  -73.6102 H         1 UNK         0.0793 
    117 H117      -76.9316   21.2010  -75.2445 H         1 UNK         0.3047 
    118 H118      -79.0034   21.2878  -77.7188 H         1 UNK         0.0822 
    119 H119      -80.1424   20.2436  -75.7543 H         1 UNK         0.0807 
    120 H120      -79.0837   21.1107  -74.6524 H         1 UNK         0.0807 
    121 H121      -78.4295   19.8917  -75.7501 H         1 UNK         0.0807 
    122 H122      -80.6980   22.6884  -77.4744 H         1 UNK         0.2946 
    123 H123      -81.6759   24.7152  -76.9989 H         1 UNK         0.1144 
    124 H124      -83.6869   24.2826  -75.5648 H         1 UNK         0.0793 
    125 H125      -82.6724   23.4994  -74.3547 H         1 UNK         0.0793 
    126 H126      -82.8718   22.7752  -75.9453 H         1 UNK         0.0793 
    127 H127      -80.9911   25.7336  -74.2884 H         1 UNK         0.2896 
@<TRIPOS>BOND
     1    1    2 1    
     2    1   67 1    
     3    1   68 1    
     4    1   69 1    
     5    2    3 2    
     6    2    4 am   BACKBONE|DICT|INTERRES
     7    4    5 1    
     8    4   70 1    
     9    5    6 1    
    10    5   65 1    
    11    5   71 1    
    12    6    7 1    
    13    6   72 1    
    14    6   73 1    
    15    7    8 1    
    16    8    9 1    
    17    8   74 1    
    18    8   75 1    
    19    9   10 ar   
    20    9   14 ar   
    21   10   11 ar   
    22   10   76 1    
    23   11   12 ar   
    24   11   48 1    
    25   12   13 ar   
    26   12   77 1    
    27   13   14 ar   
    28   13   15 1    
    29   14   78 1    
    30   15   16 1    
    31   15   79 1    
    32   15   80 1    
    33   16   17 1    
    34   17   18 1    
    35   17   81 1    
    36   17   82 1    
    37   18   19 1    
    38   18   22 1    
    39   18   83 1    
    40   19   20 am   BACKBONE|DICT|INTERRES
    41   19   21 2    
    42   20   84 1    
    43   20   85 1    
    44   22   23 am   BACKBONE|DICT|INTERRES
    45   22   86 1    
    46   23   24 2    
    47   23   25 1    
    48   25   26 1    
    49   25   27 1    
    50   25   87 1    
    51   26   88 1    
    52   26   89 1    
    53   26   90 1    
    54   27   28 am   BACKBONE|DICT|INTERRES
    55   27   91 1    
    56   28   29 2    
    57   28   30 1    
    58   30   31 1    
    59   30   32 1    
    60   30   92 1    
    61   31   93 1    
    62   31   94 1    
    63   31   95 1    
    64   32   33 am   BACKBONE|DICT|INTERRES
    65   32   96 1    
    66   33   34 2    
    67   33   35 1    
    68   35   36 1    
    69   35   37 1    
    70   35   97 1    
    71   36   98 1    
    72   36   99 1    
    73   36  100 1    
    74   37   38 am   BACKBONE|DICT|INTERRES
    75   37  101 1    
    76   38   39 2    
    77   38   40 1    
    78   40   41 1    
    79   40   42 1    
    80   40  102 1    
    81   41  103 1    
    82   41  104 1    
    83   41  105 1    
    84   42   43 am   BACKBONE|DICT|INTERRES
    85   42  106 1    
    86   43   44 2    
    87   43   45 1    
    88   45   46 1    
    89   45   49 1    
    90   45  107 1    
    91   46   47 1    
    92   46  108 1    
    93   46  109 1    
    94   47   48 1    
    95   48  110 1    
    96   48  111 1    
    97   49   50 am   BACKBONE|DICT|INTERRES
    98   49  112 1    
    99   50   51 2    
   100   50   52 1    
   101   52   53 1    
   102   52   54 1    
   103   52  113 1    
   104   53  114 1    
   105   53  115 1    
   106   53  116 1    
   107   54   55 am   BACKBONE|DICT|INTERRES
   108   54  117 1    
   109   55   56 2    
   110   55   57 1    
   111   57   58 1    
   112   57   59 1    
   113   57  118 1    
   114   58  119 1    
   115   58  120 1    
   116   58  121 1    
   117   59   60 am   BACKBONE|DICT|INTERRES
   118   59  122 1    
   119   60   61 2    
   120   60   62 1    
   121   62   63 1    
   122   62   64 1    
   123   62  123 1    
   124   63  124 1    
   125   63  125 1    
   126   63  126 1    
   127   64   65 am   BACKBONE|DICT|INTERRES
   128   64  127 1    
   129   65   66 2    
@<TRIPOS>SUBSTRUCTURE
     1 UNK         1 GROUP             0       ****    0 ROOT    
