@<TRIPOS>MOLECULE
3R135
127   129    1
SMALL
USER_CHARGES


@<TRIPOS>ATOM
      1 CA        -83.7073   29.3062  -72.4158 C.3       0 UNK        -0.1998 
      2 C         -82.4642   28.5201  -72.8010 C.2       0 UNK         0.4909 
      3 O         -81.6013   29.0407  -73.5067 O.2       0 UNK        -0.5240 
      4 N         -82.3666   27.2588  -72.3624 N.am      1 UNK        -0.4739 
      5 CA        -81.2380   26.3474  -72.6033 C.3       1 UNK         0.0864 
      6 C6        -81.0654   25.3600  -71.4139 C.3       11 UNK        -0.0881 
      7 S7        -79.3217   25.1054  -70.9364 S.3       11 UNK        -0.2682 
      8 C8        -79.0159   26.4605  -69.7576 C.3       11 UNK         0.0289 
      9 C9        -78.0675   27.4962  -70.3439 C.ar      11 UNK        -0.0687 
     10 C10       -78.5584   28.5045  -71.1761 C.ar      11 UNK        -0.0823 
     11 C11       -77.6921   29.4407  -71.7422 C.ar      11 UNK        -0.0830 
     12 C12       -76.3391   29.4202  -71.3983 C.ar      11 UNK        -0.1021 
     13 C13       -75.8253   28.4116  -70.5781 C.ar      11 UNK        -0.0753 
     14 C14       -76.6976   27.4462  -70.0603 C.ar      11 UNK        -0.0933 
     15 C15       -74.3388   28.3706  -70.2332 C.3       11 UNK         0.0166 
     16 S16       -73.2653   28.1055  -71.6903 S.3       11 UNK        -0.2615 
     17 C17       -72.9622   29.8134  -72.2702 C.3       11 UNK        -0.0865 
     18 CA        -73.6015   30.0899  -73.6637 C.3       10 UNK         0.0862 
     19 C         -73.8830   31.6018  -73.9334 C.2       10 UNK         0.5551 
     20 N         -73.8802   32.0612  -75.1792 N.am      10 UNK        -0.7319 
     21 O         -74.1426   32.3671  -73.0081 O.2       10 UNK        -0.5018 
     22 N         -72.9206   29.3840  -74.7623 N.am      10 UNK        -0.4509 
     23 C         -71.6945   29.6386  -75.2340 C.2       10 UNK         0.4899 
     24 O         -70.9246   30.4658  -74.7413 O.2       10 UNK        -0.4839 
     25 CA        -71.2821   28.8487  -76.4910 C.3       9 UNK         0.0222 
     26 CB        -70.0080   29.4102  -77.1579 C.3       9 UNK        -0.1966 
     27 N         -71.1411   27.4088  -76.2497 N.am      9 UNK        -0.4218 
     28 C         -70.3352   26.7972  -75.3650 C.2       9 UNK         0.5020 
     29 O         -69.5939   27.3966  -74.5845 O.2       9 UNK        -0.5274 
     30 CA        -70.2840   25.2526  -75.3864 C.3       8 UNK         0.0270 
     31 CB        -70.2951   24.6480  -73.9650 C.3       8 UNK        -0.1976 
     32 N         -71.2860   24.6132  -76.2535 N.am      8 UNK        -0.4313 
     33 C         -72.6142   24.5926  -76.0802 C.2       8 UNK         0.5041 
     34 O         -73.1948   25.0730  -75.1072 O.2       8 UNK        -0.5577 
     35 CA        -73.4348   23.9406  -77.2049 C.3       7 UNK         0.0284 
     36 CB        -73.9355   22.5524  -76.7760 C.3       7 UNK        -0.1958 
     37 N         -74.5730   24.7830  -77.5771 N.am      7 UNK        -0.4454 
     38 C         -74.4658   26.0024  -78.1238 C.2       7 UNK         0.5089 
     39 O         -73.3929   26.5100  -78.4578 O.2       7 UNK        -0.5125 
     40 CA        -75.7691   26.8039  -78.2958 C.3       6 UNK         0.0408 
     41 CB        -76.6103   26.2544  -79.4586 C.3       6 UNK        -0.1791 
     42 N         -76.5767   26.8475  -77.0732 N.am      6 UNK        -0.4762 
     43 C         -76.1782   27.4077  -75.9186 C.2       6 UNK         0.5007 
     44 O         -75.0954   27.9748  -75.7844 O.2       6 UNK        -0.5032 
     45 CA        -77.1411   27.3058  -74.7170 C.3       5 UNK         0.0783 
     46 C46       -78.2400   28.4021  -74.7633 C.3       11 UNK        -0.0857 
     47 S47       -77.5980   30.0850  -74.4367 S.3       11 UNK        -0.2512 
     48 C48       -78.2105   30.4492  -72.7554 C.3       11 UNK         0.0225 
     49 N         -77.7021   25.9497  -74.6767 N.am      5 UNK        -0.4615 
     50 C         -77.0913   24.9080  -74.0887 C.2       4 UNK         0.5053 
     51 O         -76.1450   25.0304  -73.3132 O.2       4 UNK        -0.5105 
     52 CA        -77.5694   23.4826  -74.4393 C.3       4 UNK         0.0263 
     53 CB        -78.1474   22.7356  -73.2271 C.3       4 UNK        -0.1981 
     54 N         -78.5403   23.4426  -75.5329 N.am      4 UNK        -0.4224 
     55 C         -78.2104   23.4293  -76.8318 C.2       3 UNK         0.4895 
     56 O         -77.0512   23.4200  -77.2411 O.2       3 UNK        -0.5091 
     57 CA        -79.3606   23.4899  -77.8533 C.3       3 UNK         0.0250 
     58 CB        -79.8042   22.0726  -78.2473 C.3       3 UNK        -0.1996 
     59 N         -80.5217   24.2544  -77.3888 N.am      3 UNK        -0.4254 
     60 C         -80.4893   25.5377  -77.0050 C.2       2 UNK         0.5004 
     61 O         -79.4670   26.2258  -77.0278 O.2       2 UNK        -0.5226 
     62 CA        -81.7839   26.1475  -76.4415 C.3       2 UNK         0.0269 
     63 CB        -83.0437   25.2755  -76.6476 C.3       2 UNK        -0.1926 
     64 N         -81.6293   26.4964  -75.0247 N.am      2 UNK        -0.4687 
     65 C         -81.3038   25.6875  -74.0034 C.2       1 UNK         0.5165 
     66 O         -81.0685   24.4856  -74.1418 O.2       1 UNK        -0.5079 
     67 H67       -84.3832   28.7213  -71.7924 H         1 UNK         0.0900 
     68 H68       -84.2491   29.6125  -73.3103 H         1 UNK         0.0900 
     69 H69       -83.4265   30.2026  -71.8637 H         1 UNK         0.0900 
     70 H70       -83.1305   26.8689  -71.8277 H         1 UNK         0.2959 
     71 H71       -80.3369   26.9535  -72.6520 H         1 UNK         0.1079 
     72 H72       -81.5944   25.7184  -70.5295 H         1 UNK         0.0837 
     73 H73       -81.5167   24.3889  -71.6255 H         1 UNK         0.0837 
     74 H74       -79.9509   26.9381  -69.4620 H         1 UNK         0.0685 
     75 H75       -78.5918   26.0391  -68.8450 H         1 UNK         0.0685 
     76 H76       -79.6139   28.5544  -71.3980 H         1 UNK         0.1434 
     77 H77       -75.6853   30.1798  -71.7962 H         1 UNK         0.1329 
     78 H78       -76.3135   26.6595  -69.4255 H         1 UNK         0.1335 
     79 H79       -74.0572   29.2865  -69.7126 H         1 UNK         0.0680 
     80 H80       -74.1435   27.5602  -69.5294 H         1 UNK         0.0680 
     81 H81       -71.8860   29.9875  -72.2994 H         1 UNK         0.1032 
     82 H82       -73.3394   30.5039  -71.5155 H         1 UNK         0.1032 
     83 H83       -74.5974   29.6498  -73.6555 H         1 UNK         0.0461 
     84 H84       -74.0758   33.0352  -75.3475 H         1 UNK         0.3453 
     85 H85       -73.6975   31.4400  -75.9503 H         1 UNK         0.3453 
     86 H86       -73.5099   28.7042  -75.2407 H         1 UNK         0.2984 
     87 H87       -72.0981   28.9569  -77.2076 H         1 UNK         0.0554 
     88 H88       -69.7804   28.8839  -78.0848 H         1 UNK         0.0847 
     89 H89       -69.1379   29.3310  -76.5052 H         1 UNK         0.0847 
     90 H90       -70.1313   30.4650  -77.4066 H         1 UNK         0.0847 
     91 H91       -71.7369   26.8225  -76.8212 H         1 UNK         0.3141 
     92 H92       -69.3191   25.0038  -75.8307 H         1 UNK         0.0743 
     93 H93       -71.1891   24.9329  -73.4094 H         1 UNK         0.0784 
     94 H94       -70.2491   23.5594  -73.9945 H         1 UNK         0.0784 
     95 H95       -69.4361   24.9916  -73.3874 H         1 UNK         0.0784 
     96 H96       -70.9136   24.1940  -77.0956 H         1 UNK         0.3213 
     97 H97       -72.8065   23.8221  -78.0903 H         1 UNK         0.0855 
     98 H98       -74.5691   22.6117  -75.8906 H         1 UNK         0.0814 
     99 H99       -73.1010   21.8923  -76.5364 H         1 UNK         0.0814 
    100 H100      -74.5121   22.0747  -77.5685 H         1 UNK         0.0814 
    101 H101      -75.4973   24.4261  -77.3441 H         1 UNK         0.3105 
    102 H102      -75.4942   27.8322  -78.5398 H         1 UNK         0.0547 
    103 H103      -76.0442   26.2763  -80.3907 H         1 UNK         0.0837 
    104 H104      -76.9143   25.2219  -79.2889 H         1 UNK         0.0837 
    105 H105      -77.5117   26.8478  -79.6126 H         1 UNK         0.0837 
    106 H106      -77.5119   26.4553  -77.1242 H         1 UNK         0.3020 
    107 H107      -76.5504   27.4666  -73.8107 H         1 UNK         0.1245 
    108 H108      -79.0148   28.1836  -74.0315 H         1 UNK         0.0781 
    109 H109      -78.7476   28.4110  -75.7290 H         1 UNK         0.0781 
    110 H110      -79.3016   30.4691  -72.7682 H         1 UNK         0.0836 
    111 H111      -77.8874   31.4508  -72.4681 H         1 UNK         0.0836 
    112 H112      -78.4562   25.7695  -75.3284 H         1 UNK         0.3022 
    113 H113      -76.6748   22.9370  -74.7457 H         1 UNK         0.0747 
    114 H114      -78.2392   21.6693  -73.4333 H         1 UNK         0.0793 
    115 H115      -77.5059   22.8410  -72.3511 H         1 UNK         0.0793 
    116 H116      -79.1365   23.1029  -72.9590 H         1 UNK         0.0793 
    117 H117      -79.5181   23.5075  -75.2695 H         1 UNK         0.3047 
    118 H118      -78.9782   23.9885  -78.7460 H         1 UNK         0.0822 
    119 H119      -80.5520   22.0959  -79.0402 H         1 UNK         0.0807 
    120 H120      -80.2276   21.5310  -77.4003 H         1 UNK         0.0807 
    121 H121      -78.9601   21.4892  -78.6181 H         1 UNK         0.0807 
    122 H122      -81.3957   23.7544  -77.3114 H         1 UNK         0.2946 
    123 H123      -81.9342   27.0832  -76.9827 H         1 UNK         0.1144 
    124 H124      -83.9358   25.7972  -76.3007 H         1 UNK         0.0793 
    125 H125      -82.9902   24.3298  -76.1069 H         1 UNK         0.0793 
    126 H126      -83.2007   25.0499  -77.7033 H         1 UNK         0.0793 
    127 H127      -81.7430   27.4798  -74.7987 H         1 UNK         0.2896 
@<TRIPOS>BOND
     1    1    2 1    
     2    1   67 1    
     3    1   68 1    
     4    1   69 1    
     5    2    3 2    
     6    2    4 am   BACKBONE|DICT|INTERRES
     7    4    5 1    
     8    4   70 1    
     9    5    6 1    
    10    5   65 1    
    11    5   71 1    
    12    6    7 1    
    13    6   72 1    
    14    6   73 1    
    15    7    8 1    
    16    8    9 1    
    17    8   74 1    
    18    8   75 1    
    19    9   10 ar   
    20    9   14 ar   
    21   10   11 ar   
    22   10   76 1    
    23   11   12 ar   
    24   11   48 1    
    25   12   13 ar   
    26   12   77 1    
    27   13   14 ar   
    28   13   15 1    
    29   14   78 1    
    30   15   16 1    
    31   15   79 1    
    32   15   80 1    
    33   16   17 1    
    34   17   18 1    
    35   17   81 1    
    36   17   82 1    
    37   18   19 1    
    38   18   22 1    
    39   18   83 1    
    40   19   20 am   BACKBONE|DICT|INTERRES
    41   19   21 2    
    42   20   84 1    
    43   20   85 1    
    44   22   23 am   BACKBONE|DICT|INTERRES
    45   22   86 1    
    46   23   24 2    
    47   23   25 1    
    48   25   26 1    
    49   25   27 1    
    50   25   87 1    
    51   26   88 1    
    52   26   89 1    
    53   26   90 1    
    54   27   28 am   BACKBONE|DICT|INTERRES
    55   27   91 1    
    56   28   29 2    
    57   28   30 1    
    58   30   31 1    
    59   30   32 1    
    60   30   92 1    
    61   31   93 1    
    62   31   94 1    
    63   31   95 1    
    64   32   33 am   BACKBONE|DICT|INTERRES
    65   32   96 1    
    66   33   34 2    
    67   33   35 1    
    68   35   36 1    
    69   35   37 1    
    70   35   97 1    
    71   36   98 1    
    72   36   99 1    
    73   36  100 1    
    74   37   38 am   BACKBONE|DICT|INTERRES
    75   37  101 1    
    76   38   39 2    
    77   38   40 1    
    78   40   41 1    
    79   40   42 1    
    80   40  102 1    
    81   41  103 1    
    82   41  104 1    
    83   41  105 1    
    84   42   43 am   BACKBONE|DICT|INTERRES
    85   42  106 1    
    86   43   44 2    
    87   43   45 1    
    88   45   46 1    
    89   45   49 1    
    90   45  107 1    
    91   46   47 1    
    92   46  108 1    
    93   46  109 1    
    94   47   48 1    
    95   48  110 1    
    96   48  111 1    
    97   49   50 am   BACKBONE|DICT|INTERRES
    98   49  112 1    
    99   50   51 2    
   100   50   52 1    
   101   52   53 1    
   102   52   54 1    
   103   52  113 1    
   104   53  114 1    
   105   53  115 1    
   106   53  116 1    
   107   54   55 am   BACKBONE|DICT|INTERRES
   108   54  117 1    
   109   55   56 2    
   110   55   57 1    
   111   57   58 1    
   112   57   59 1    
   113   57  118 1    
   114   58  119 1    
   115   58  120 1    
   116   58  121 1    
   117   59   60 am   BACKBONE|DICT|INTERRES
   118   59  122 1    
   119   60   61 2    
   120   60   62 1    
   121   62   63 1    
   122   62   64 1    
   123   62  123 1    
   124   63  124 1    
   125   63  125 1    
   126   63  126 1    
   127   64   65 am   BACKBONE|DICT|INTERRES
   128   64  127 1    
   129   65   66 2    
@<TRIPOS>SUBSTRUCTURE
     1 UNK         1 GROUP             0       ****    0 ROOT    
