@<TRIPOS>MOLECULE
3R135
127   129    1
SMALL
USER_CHARGES


@<TRIPOS>ATOM
      1 CA        -84.9603   30.4856  -74.2819 C.3       0 UNK        -0.1998 
      2 C         -83.4410   30.5476  -74.3327 C.2       0 UNK         0.4909 
      3 O         -82.8757   30.8748  -75.3768 O.2       0 UNK        -0.5240 
      4 N         -82.7771   30.2468  -73.2105 N.am      1 UNK        -0.4739 
      5 CA        -81.3180   30.1660  -73.0961 C.3       1 UNK         0.0864 
      6 C6        -80.8645   30.3152  -71.6194 C.3       11 UNK        -0.0881 
      7 S7        -81.5165   29.0273  -70.4893 S.3       11 UNK        -0.2682 
      8 C8        -80.0741   28.6291  -69.4478 C.3       11 UNK         0.0289 
      9 C9        -78.9330   28.0016  -70.2372 C.ar      11 UNK        -0.0687 
     10 C10       -78.9740   26.6517  -70.6005 C.ar      11 UNK        -0.0823 
     11 C11       -77.9176   26.0781  -71.3166 C.ar      11 UNK        -0.0830 
     12 C12       -76.8285   26.8719  -71.6917 C.ar      11 UNK        -0.1021 
     13 C13       -76.7765   28.2231  -71.3340 C.ar      11 UNK        -0.0753 
     14 C14       -77.8221   28.7725  -70.5877 C.ar      11 UNK        -0.0933 
     15 C15       -75.5930   29.0921  -71.7408 C.3       11 UNK         0.0166 
     16 S16       -76.1303   30.5405  -72.7074 S.3       11 UNK        -0.2615 
     17 C17       -74.5399   31.3398  -73.0998 C.3       11 UNK        -0.0865 
     18 CA        -74.2334   31.3111  -74.6208 C.3       10 UNK         0.0862 
     19 C         -73.0990   32.3162  -74.9849 C.2       10 UNK         0.5551 
     20 N         -71.9855   31.9013  -75.5760 N.am      10 UNK        -0.7319 
     21 O         -73.2386   33.5102  -74.7309 O.2       10 UNK        -0.5018 
     22 N         -74.0205   29.9372  -75.1091 N.am      10 UNK        -0.4509 
     23 C         -74.1809   29.5476  -76.3807 C.2       10 UNK         0.4899 
     24 O         -74.6252   30.2808  -77.2657 O.2       10 UNK        -0.4839 
     25 CA        -73.7666   28.0973  -76.7200 C.3       9 UNK         0.0222 
     26 CB        -73.5366   27.8865  -78.2306 C.3       9 UNK        -0.1966 
     27 N         -72.6075   27.5980  -75.9648 N.am      9 UNK        -0.4218 
     28 C         -71.3990   28.1768  -75.8502 C.2       9 UNK         0.5020 
     29 O         -71.1092   29.2683  -76.3400 O.2       9 UNK        -0.5274 
     30 CA        -70.3317   27.4313  -75.0285 C.3       8 UNK         0.0270 
     31 CB        -70.3399   27.9291  -73.5735 C.3       8 UNK        -0.1976 
     32 N         -70.4962   25.9768  -75.0429 N.am      8 UNK        -0.4313 
     33 C         -70.3357   25.1976  -76.1217 C.2       8 UNK         0.5041 
     34 O         -69.9352   25.6099  -77.2110 O.2       8 UNK        -0.5577 
     35 CA        -70.6950   23.7079  -75.9694 C.3       7 UNK         0.0284 
     36 CB        -69.4218   22.8659  -75.7837 C.3       7 UNK        -0.1958 
     37 N         -71.6328   23.4118  -74.8777 N.am      7 UNK        -0.4454 
     38 C         -72.8926   23.8594  -74.7979 C.2       7 UNK         0.5089 
     39 O         -73.4005   24.6531  -75.5952 O.2       7 UNK        -0.5125 
     40 CA        -73.7140   23.3721  -73.6028 C.3       6 UNK         0.0408 
     41 CB        -73.6779   24.4003  -72.4598 C.3       6 UNK        -0.1791 
     42 N         -75.0851   23.1839  -74.0602 N.am      6 UNK        -0.4762 
     43 C         -75.9043   22.1932  -73.6877 C.2       6 UNK         0.5007 
     44 O         -75.6231   21.3704  -72.8152 O.2       6 UNK        -0.5032 
     45 CA        -77.2648   22.0881  -74.4085 C.3       5 UNK         0.0783 
     46 C46       -78.4425   22.5062  -73.4886 C.3       11 UNK        -0.0857 
     47 S47       -78.6490   24.3146  -73.3144 S.3       11 UNK        -0.2512 
     48 C48       -77.9394   24.5973  -71.6659 C.3       11 UNK         0.0225 
     49 N         -77.2950   22.8209  -75.6770 N.am      5 UNK        -0.4615 
     50 C         -76.7790   22.4142  -76.8422 C.2       4 UNK         0.5053 
     51 O         -76.1814   21.3467  -76.9832 O.2       4 UNK        -0.5105 
     52 CA        -76.9507   23.3721  -78.0426 C.3       4 UNK         0.0263 
     53 CB        -77.0660   22.6208  -79.3861 C.3       4 UNK        -0.1981 
     54 N         -78.0491   24.3419  -77.8803 N.am      4 UNK        -0.4224 
     55 C         -79.3626   24.0795  -77.7682 C.2       3 UNK         0.4895 
     56 O         -79.8490   22.9495  -77.8272 O.2       3 UNK        -0.5091 
     57 CA        -80.2613   25.2907  -77.4729 C.3       3 UNK         0.0250 
     58 CB        -81.7374   24.9125  -77.2436 C.3       3 UNK        -0.1996 
     59 N         -79.7469   25.9800  -76.2895 N.am      3 UNK        -0.4254 
     60 C         -79.5751   27.3004  -76.1728 C.2       2 UNK         0.5004 
     61 O         -79.8802   28.1218  -77.0402 O.2       2 UNK        -0.5226 
     62 CA        -78.8784   27.7743  -74.8867 C.3       2 UNK         0.0269 
     63 CB        -77.4083   28.1073  -75.1853 C.3       2 UNK        -0.1926 
     64 N         -79.5429   28.9199  -74.2614 N.am      2 UNK        -0.4687 
     65 C         -80.7832   28.8733  -73.7532 C.2       1 UNK         0.5165 
     66 O         -81.4860   27.8575  -73.7659 O.2       1 UNK        -0.5079 
     67 H67       -85.3845   31.4588  -74.5277 H         1 UNK         0.0900 
     68 H68       -85.3236   30.1967  -73.2957 H         1 UNK         0.0900 
     69 H69       -85.3300   29.7594  -75.0053 H         1 UNK         0.0900 
     70 H70       -83.2857   29.9445  -72.3916 H         1 UNK         0.2959 
     71 H71       -80.8992   31.0077  -73.6530 H         1 UNK         0.1079 
     72 H72       -79.7768   30.3456  -71.5732 H         1 UNK         0.0837 
     73 H73       -81.1904   31.2840  -71.2377 H         1 UNK         0.0837 
     74 H74       -80.3891   27.9410  -68.6620 H         1 UNK         0.0685 
     75 H75       -79.7397   29.5352  -68.9401 H         1 UNK         0.0685 
     76 H76       -79.8270   26.0483  -70.3210 H         1 UNK         0.1434 
     77 H77       -76.0213   26.4339  -72.2604 H         1 UNK         0.1329 
     78 H78       -77.7777   29.8139  -70.2995 H         1 UNK         0.1335 
     79 H79       -75.0703   29.4274  -70.8439 H         1 UNK         0.0680 
     80 H80       -74.8764   28.5170  -72.3291 H         1 UNK         0.0680 
     81 H81       -74.6107   32.3679  -72.7390 H         1 UNK         0.1032 
     82 H82       -73.7286   30.8806  -72.5324 H         1 UNK         0.1032 
     83 H83       -75.1193   31.6985  -75.1282 H         1 UNK         0.0461 
     84 H84       -71.2738   32.5769  -75.8029 H         1 UNK         0.3453 
     85 H85       -71.8410   30.9247  -75.8181 H         1 UNK         0.3453 
     86 H86       -73.6380   29.2800  -74.4475 H         1 UNK         0.2984 
     87 H87       -74.6064   27.4671  -76.4265 H         1 UNK         0.0554 
     88 H88       -73.2831   26.8493  -78.4508 H         1 UNK         0.0847 
     89 H89       -72.7281   28.5155  -78.6048 H         1 UNK         0.0847 
     90 H90       -74.4321   28.1279  -78.8046 H         1 UNK         0.0847 
     91 H91       -72.7311   26.6759  -75.5607 H         1 UNK         0.3141 
     92 H92       -69.3587   27.6647  -75.4663 H         1 UNK         0.0743 
     93 H93       -70.1993   29.0104  -73.5306 H         1 UNK         0.0784 
     94 H94       -71.2815   27.7030  -73.0714 H         1 UNK         0.0784 
     95 H95       -69.5333   27.4779  -72.9952 H         1 UNK         0.0784 
     96 H96       -70.7979   25.5398  -74.1846 H         1 UNK         0.3213 
     97 H97       -71.1738   23.4012  -76.9021 H         1 UNK         0.0855 
     98 H98       -68.9102   23.1064  -74.8508 H         1 UNK         0.0814 
     99 H99       -68.7153   23.0417  -76.5964 H         1 UNK         0.0814 
    100 H100      -69.6465   21.7991  -75.7802 H         1 UNK         0.0814 
    101 H101      -71.3031   22.7751  -74.1655 H         1 UNK         0.3105 
    102 H102      -73.3024   22.4227  -73.2532 H         1 UNK         0.0547 
    103 H103      -74.0062   25.3849  -72.7933 H         1 UNK         0.0837 
    104 H104      -74.3158   24.0955  -71.6302 H         1 UNK         0.0837 
    105 H105      -72.6670   24.5108  -72.0658 H         1 UNK         0.0837 
    106 H106      -75.3607   23.7903  -74.8218 H         1 UNK         0.3020 
    107 H107      -77.3927   21.0273  -74.6377 H         1 UNK         0.1245 
    108 H108      -78.3634   22.0388  -72.5049 H         1 UNK         0.0781 
    109 H109      -79.3717   22.1218  -73.9121 H         1 UNK         0.0781 
    110 H110      -76.9262   24.1947  -71.6297 H         1 UNK         0.0836 
    111 H111      -78.5165   24.0435  -70.9236 H         1 UNK         0.0836 
    112 H112      -77.7680   23.7098  -75.6474 H         1 UNK         0.3022 
    113 H113      -76.0335   23.9623  -78.0784 H         1 UNK         0.0747 
    114 H114      -77.1720   23.3137  -80.2207 H         1 UNK         0.0793 
    115 H115      -76.1754   22.0208  -79.5773 H         1 UNK         0.0793 
    116 H116      -77.9206   21.9437  -79.4008 H         1 UNK         0.0793 
    117 H117      -77.7633   25.3096  -77.8177 H         1 UNK         0.3047 
    118 H118      -80.2059   25.9423  -78.3477 H         1 UNK         0.0822 
    119 H119      -82.1525   24.4059  -78.1159 H         1 UNK         0.0807 
    120 H120      -82.3475   25.7976  -77.0621 H         1 UNK         0.0807 
    121 H121      -81.8547   24.2452  -76.3888 H         1 UNK         0.0807 
    122 H122      -79.4946   25.3882  -75.5090 H         1 UNK         0.2946 
    123 H123      -78.8997   26.9678  -74.1540 H         1 UNK         0.1144 
    124 H124      -76.9212   27.2853  -75.7108 H         1 UNK         0.0793 
    125 H125      -76.8456   28.2688  -74.2697 H         1 UNK         0.0793 
    126 H126      -77.3110   28.9986  -75.8065 H         1 UNK         0.0793 
    127 H127      -79.0187   29.7819  -74.2236 H         1 UNK         0.2896 
@<TRIPOS>BOND
     1    1    2 1    
     2    1   67 1    
     3    1   68 1    
     4    1   69 1    
     5    2    3 2    
     6    2    4 am   BACKBONE|DICT|INTERRES
     7    4    5 1    
     8    4   70 1    
     9    5    6 1    
    10    5   65 1    
    11    5   71 1    
    12    6    7 1    
    13    6   72 1    
    14    6   73 1    
    15    7    8 1    
    16    8    9 1    
    17    8   74 1    
    18    8   75 1    
    19    9   10 ar   
    20    9   14 ar   
    21   10   11 ar   
    22   10   76 1    
    23   11   12 ar   
    24   11   48 1    
    25   12   13 ar   
    26   12   77 1    
    27   13   14 ar   
    28   13   15 1    
    29   14   78 1    
    30   15   16 1    
    31   15   79 1    
    32   15   80 1    
    33   16   17 1    
    34   17   18 1    
    35   17   81 1    
    36   17   82 1    
    37   18   19 1    
    38   18   22 1    
    39   18   83 1    
    40   19   20 am   BACKBONE|DICT|INTERRES
    41   19   21 2    
    42   20   84 1    
    43   20   85 1    
    44   22   23 am   BACKBONE|DICT|INTERRES
    45   22   86 1    
    46   23   24 2    
    47   23   25 1    
    48   25   26 1    
    49   25   27 1    
    50   25   87 1    
    51   26   88 1    
    52   26   89 1    
    53   26   90 1    
    54   27   28 am   BACKBONE|DICT|INTERRES
    55   27   91 1    
    56   28   29 2    
    57   28   30 1    
    58   30   31 1    
    59   30   32 1    
    60   30   92 1    
    61   31   93 1    
    62   31   94 1    
    63   31   95 1    
    64   32   33 am   BACKBONE|DICT|INTERRES
    65   32   96 1    
    66   33   34 2    
    67   33   35 1    
    68   35   36 1    
    69   35   37 1    
    70   35   97 1    
    71   36   98 1    
    72   36   99 1    
    73   36  100 1    
    74   37   38 am   BACKBONE|DICT|INTERRES
    75   37  101 1    
    76   38   39 2    
    77   38   40 1    
    78   40   41 1    
    79   40   42 1    
    80   40  102 1    
    81   41  103 1    
    82   41  104 1    
    83   41  105 1    
    84   42   43 am   BACKBONE|DICT|INTERRES
    85   42  106 1    
    86   43   44 2    
    87   43   45 1    
    88   45   46 1    
    89   45   49 1    
    90   45  107 1    
    91   46   47 1    
    92   46  108 1    
    93   46  109 1    
    94   47   48 1    
    95   48  110 1    
    96   48  111 1    
    97   49   50 am   BACKBONE|DICT|INTERRES
    98   49  112 1    
    99   50   51 2    
   100   50   52 1    
   101   52   53 1    
   102   52   54 1    
   103   52  113 1    
   104   53  114 1    
   105   53  115 1    
   106   53  116 1    
   107   54   55 am   BACKBONE|DICT|INTERRES
   108   54  117 1    
   109   55   56 2    
   110   55   57 1    
   111   57   58 1    
   112   57   59 1    
   113   57  118 1    
   114   58  119 1    
   115   58  120 1    
   116   58  121 1    
   117   59   60 am   BACKBONE|DICT|INTERRES
   118   59  122 1    
   119   60   61 2    
   120   60   62 1    
   121   62   63 1    
   122   62   64 1    
   123   62  123 1    
   124   63  124 1    
   125   63  125 1    
   126   63  126 1    
   127   64   65 am   BACKBONE|DICT|INTERRES
   128   64  127 1    
   129   65   66 2    
@<TRIPOS>SUBSTRUCTURE
     1 UNK         1 GROUP             0       ****    0 ROOT    
