@<TRIPOS>MOLECULE
3R135
127   129    1
SMALL
USER_CHARGES


@<TRIPOS>ATOM
      1 CA        -84.8874   29.5900  -76.7700 C.3       0 UNK        -0.1998 
      2 C         -83.4368   29.1344  -76.8247 C.2       0 UNK         0.4909 
      3 O         -82.8246   29.1688  -77.8926 O.2       0 UNK        -0.5240 
      4 N         -82.8829   28.7115  -75.6804 N.am      1 UNK        -0.4739 
      5 CA        -81.5024   28.2265  -75.5410 C.3       1 UNK         0.0864 
      6 C6        -81.0843   28.1209  -74.0525 C.3       11 UNK        -0.0881 
      7 S7        -80.9373   29.7692  -73.2929 S.3       11 UNK        -0.2682 
      8 C8        -80.6518   29.3440  -71.5465 C.3       11 UNK         0.0289 
      9 C9        -79.1966   29.0036  -71.2453 C.ar      11 UNK        -0.0687 
     10 C10       -78.8416   27.7216  -70.8132 C.ar      11 UNK        -0.0823 
     11 C11       -77.5253   27.4398  -70.4305 C.ar      11 UNK        -0.0830 
     12 C12       -76.5570   28.4446  -70.5007 C.ar      11 UNK        -0.1021 
     13 C13       -76.8927   29.7239  -70.9533 C.ar      11 UNK        -0.0753 
     14 C14       -78.2140   29.9962  -71.3235 C.ar      11 UNK        -0.0933 
     15 C15       -75.8440   30.8272  -70.9939 C.3       11 UNK         0.0166 
     16 S16       -74.7636   30.6928  -72.4522 S.3       11 UNK        -0.2615 
     17 C17       -73.5504   29.4426  -71.8997 C.3       11 UNK        -0.0865 
     18 CA        -72.1876   29.5629  -72.6338 C.3       10 UNK         0.0862 
     19 C         -71.1206   28.5888  -72.0520 C.2       10 UNK         0.5551 
     20 N         -70.3515   27.8711  -72.8640 N.am      10 UNK        -0.7319 
     21 O         -70.9729   28.4937  -70.8361 O.2       10 UNK        -0.5018 
     22 N         -72.3482   29.4270  -74.0884 N.am      10 UNK        -0.4509 
     23 C         -71.7763   30.2150  -75.0048 C.2       10 UNK         0.4899 
     24 O         -71.0735   31.1892  -74.7292 O.2       10 UNK        -0.4839 
     25 CA        -72.0386   29.8532  -76.4796 C.3       9 UNK         0.0222 
     26 CB        -71.0310   30.5093  -77.4479 C.3       9 UNK        -0.1966 
     27 N         -72.1280   28.4084  -76.7259 N.am      9 UNK        -0.4218 
     28 C         -71.1772   27.4831  -76.5178 C.2       9 UNK         0.5020 
     29 O         -70.0822   27.7446  -76.0162 O.2       9 UNK        -0.5274 
     30 CA        -71.4841   26.0215  -76.9134 C.3       8 UNK         0.0270 
     31 CB        -70.9699   25.0334  -75.8504 C.3       8 UNK        -0.1976 
     32 N         -72.9078   25.7656  -77.1461 N.am      8 UNK        -0.4313 
     33 C         -73.5790   26.0226  -78.2769 C.2       8 UNK         0.5041 
     34 O         -73.0477   26.4305  -79.3097 O.2       8 UNK        -0.5577 
     35 CA        -75.1113   25.8653  -78.2243 C.3       7 UNK         0.0284 
     36 CB        -75.5245   24.4289  -78.5771 C.3       7 UNK        -0.1958 
     37 N         -75.6773   26.2454  -76.9234 N.am      7 UNK        -0.4454 
     38 C         -75.6035   27.4800  -76.4017 C.2       7 UNK         0.5089 
     39 O         -75.1192   28.4416  -76.9982 O.2       7 UNK        -0.5125 
     40 CA        -76.0828   27.6681  -74.9540 C.3       6 UNK         0.0408 
     41 CB        -77.5779   27.9865  -74.8992 C.3       6 UNK        -0.1791 
     42 N         -75.8008   26.5074  -74.1107 N.am      6 UNK        -0.4762 
     43 C         -74.5736   26.1511  -73.7151 C.2       6 UNK         0.5007 
     44 O         -73.5534   26.7670  -74.0242 O.2       6 UNK        -0.5032 
     45 CA        -74.4663   24.8690  -72.8690 C.3       5 UNK         0.0783 
     46 C46       -74.9690   25.0820  -71.4142 C.3       11 UNK        -0.0857 
     47 S47       -76.7802   24.8911  -71.2172 S.3       11 UNK        -0.2512 
     48 C48       -77.1667   26.0655  -69.8868 C.3       11 UNK         0.0225 
     49 N         -75.1197   23.7272  -73.5146 N.am      5 UNK        -0.4615 
     50 C         -74.8214   23.2240  -74.7172 C.2       4 UNK         0.5053 
     51 O         -73.8928   23.6224  -75.4167 O.2       4 UNK        -0.5105 
     52 CA        -75.7386   22.1070  -75.2427 C.3       4 UNK         0.0263 
     53 CB        -75.2178   20.7330  -74.7925 C.3       4 UNK        -0.1981 
     54 N         -77.1454   22.2505  -74.8484 N.am      4 UNK        -0.4224 
     55 C         -77.9342   23.2896  -75.1571 C.2       3 UNK         0.4895 
     56 O         -77.5504   24.2978  -75.7568 O.2       3 UNK        -0.5091 
     57 CA        -79.3894   23.1931  -74.6887 C.3       3 UNK         0.0250 
     58 CB        -79.5484   23.7485  -73.2627 C.3       3 UNK        -0.1996 
     59 N         -80.2363   23.9499  -75.6039 N.am      3 UNK        -0.4254 
     60 C         -81.5214   23.6938  -75.8707 C.2       2 UNK         0.5004 
     61 O         -82.1518   22.7664  -75.3584 O.2       2 UNK        -0.5226 
     62 CA        -82.2254   24.6615  -76.8436 C.3       2 UNK         0.0269 
     63 CB        -83.6508   24.2069  -77.2103 C.3       2 UNK        -0.1926 
     64 N         -82.2914   26.0146  -76.2851 N.am      2 UNK        -0.4687 
     65 C         -81.2716   26.8838  -76.2621 C.2       1 UNK         0.5165 
     66 O         -80.1766   26.6505  -76.7748 O.2       1 UNK        -0.5079 
     67 H67       -84.9685   30.6245  -77.1028 H         1 UNK         0.0900 
     68 H68       -85.4999   28.9716  -77.4260 H         1 UNK         0.0900 
     69 H69       -85.2975   29.5252  -75.7623 H         1 UNK         0.0900 
     70 H70       -83.4260   28.7350  -74.8288 H         1 UNK         0.2959 
     71 H71       -80.8454   28.9495  -76.0309 H         1 UNK         0.1079 
     72 H72       -80.1291   27.6093  -73.9364 H         1 UNK         0.0837 
     73 H73       -81.8088   27.5278  -73.4910 H         1 UNK         0.0837 
     74 H74       -81.3158   28.5287  -71.2551 H         1 UNK         0.0685 
     75 H75       -80.9404   30.1992  -70.9338 H         1 UNK         0.0685 
     76 H76       -79.5957   26.9497  -70.7403 H         1 UNK         0.1434 
     77 H77       -75.5448   28.2358  -70.1855 H         1 UNK         0.1329 
     78 H78       -78.4873   30.9898  -71.6519 H         1 UNK         0.1335 
     79 H79       -76.3310   31.8033  -71.0192 H         1 UNK         0.0680 
     80 H80       -75.2494   30.8154  -70.0794 H         1 UNK         0.0680 
     81 H81       -73.9808   28.4529  -72.0438 H         1 UNK         0.1032 
     82 H82       -73.4031   29.5560  -70.8243 H         1 UNK         0.1032 
     83 H83       -71.8033   30.5599  -72.4120 H         1 UNK         0.0461 
     84 H84       -70.4368   27.9551  -73.8688 H         1 UNK         0.3453 
     85 H85       -69.6619   27.2527  -72.4687 H         1 UNK         0.3453 
     86 H86       -72.8599   28.6017  -74.3846 H         1 UNK         0.2984 
     87 H87       -73.0243   30.2575  -76.7129 H         1 UNK         0.0554 
     88 H88       -71.0618   31.5967  -77.3687 H         1 UNK         0.0847 
     89 H89       -71.2539   30.2562  -78.4844 H         1 UNK         0.0847 
     90 H90       -70.0071   30.1976  -77.2388 H         1 UNK         0.0847 
     91 H91       -73.0233   28.0975  -77.0858 H         1 UNK         0.3141 
     92 H92       -70.9407   25.8265  -77.8400 H         1 UNK         0.0743 
     93 H93       -69.8926   25.1279  -75.7086 H         1 UNK         0.0784 
     94 H94       -71.4435   25.2032  -74.8828 H         1 UNK         0.0784 
     95 H95       -71.1656   24.0011  -76.1413 H         1 UNK         0.0784 
     96 H96       -73.4185   25.3649  -76.3647 H         1 UNK         0.3213 
     97 H97       -75.5390   26.5351  -78.9734 H         1 UNK         0.0855 
     98 H98       -75.0635   23.7035  -77.9085 H         1 UNK         0.0814 
     99 H99       -75.2142   24.1753  -79.5915 H         1 UNK         0.0814 
    100 H100      -76.6057   24.2986  -78.5246 H         1 UNK         0.0814 
    101 H101      -76.1545   25.5209  -76.3924 H         1 UNK         0.3105 
    102 H102      -75.5459   28.5249  -74.5411 H         1 UNK         0.0547 
    103 H103      -78.1723   27.1247  -75.2000 H         1 UNK         0.0837 
    104 H104      -77.8333   28.8146  -75.5616 H         1 UNK         0.0837 
    105 H105      -77.8744   28.2740  -73.8905 H         1 UNK         0.0837 
    106 H106      -76.5840   25.9305  -73.8373 H         1 UNK         0.3020 
    107 H107      -73.4003   24.6344  -72.8180 H         1 UNK         0.1245 
    108 H108      -74.6480   26.0507  -71.0266 H         1 UNK         0.0781 
    109 H109      -74.4998   24.3414  -70.7648 H         1 UNK         0.0781 
    110 H110      -76.3320   26.1280  -69.1868 H         1 UNK         0.0836 
    111 H111      -78.0073   25.6729  -69.3126 H         1 UNK         0.0836 
    112 H112      -75.9121   23.3466  -73.0180 H         1 UNK         0.3022 
    113 H113      -75.7035   22.1387  -76.3325 H         1 UNK         0.0747 
    114 H114      -75.7935   19.9230  -75.2407 H         1 UNK         0.0793 
    115 H115      -74.1783   20.5927  -75.0930 H         1 UNK         0.0793 
    116 H116      -75.2618   20.6182  -73.7087 H         1 UNK         0.0793 
    117 H117      -77.5468   21.4761  -74.3388 H         1 UNK         0.3047 
    118 H118      -79.6891   22.1428  -74.7068 H         1 UNK         0.0822 
    119 H119      -80.5820   23.6821  -72.9232 H         1 UNK         0.0807 
    120 H120      -79.2444   24.7946  -73.2020 H         1 UNK         0.0807 
    121 H121      -78.9411   23.1863  -72.5527 H         1 UNK         0.0807 
    122 H122      -79.7790   24.7281  -76.0722 H         1 UNK         0.2946 
    123 H123      -81.6361   24.6819  -77.7637 H         1 UNK         0.1144 
    124 H124      -84.1035   24.8755  -77.9427 H         1 UNK         0.0793 
    125 H125      -84.3037   24.1740  -76.3371 H         1 UNK         0.0793 
    126 H126      -83.6411   23.2080  -77.6488 H         1 UNK         0.0793 
    127 H127      -83.1541   26.2782  -75.8314 H         1 UNK         0.2896 
@<TRIPOS>BOND
     1    1    2 1    
     2    1   67 1    
     3    1   68 1    
     4    1   69 1    
     5    2    3 2    
     6    2    4 am   BACKBONE|DICT|INTERRES
     7    4    5 1    
     8    4   70 1    
     9    5    6 1    
    10    5   65 1    
    11    5   71 1    
    12    6    7 1    
    13    6   72 1    
    14    6   73 1    
    15    7    8 1    
    16    8    9 1    
    17    8   74 1    
    18    8   75 1    
    19    9   10 ar   
    20    9   14 ar   
    21   10   11 ar   
    22   10   76 1    
    23   11   12 ar   
    24   11   48 1    
    25   12   13 ar   
    26   12   77 1    
    27   13   14 ar   
    28   13   15 1    
    29   14   78 1    
    30   15   16 1    
    31   15   79 1    
    32   15   80 1    
    33   16   17 1    
    34   17   18 1    
    35   17   81 1    
    36   17   82 1    
    37   18   19 1    
    38   18   22 1    
    39   18   83 1    
    40   19   20 am   BACKBONE|DICT|INTERRES
    41   19   21 2    
    42   20   84 1    
    43   20   85 1    
    44   22   23 am   BACKBONE|DICT|INTERRES
    45   22   86 1    
    46   23   24 2    
    47   23   25 1    
    48   25   26 1    
    49   25   27 1    
    50   25   87 1    
    51   26   88 1    
    52   26   89 1    
    53   26   90 1    
    54   27   28 am   BACKBONE|DICT|INTERRES
    55   27   91 1    
    56   28   29 2    
    57   28   30 1    
    58   30   31 1    
    59   30   32 1    
    60   30   92 1    
    61   31   93 1    
    62   31   94 1    
    63   31   95 1    
    64   32   33 am   BACKBONE|DICT|INTERRES
    65   32   96 1    
    66   33   34 2    
    67   33   35 1    
    68   35   36 1    
    69   35   37 1    
    70   35   97 1    
    71   36   98 1    
    72   36   99 1    
    73   36  100 1    
    74   37   38 am   BACKBONE|DICT|INTERRES
    75   37  101 1    
    76   38   39 2    
    77   38   40 1    
    78   40   41 1    
    79   40   42 1    
    80   40  102 1    
    81   41  103 1    
    82   41  104 1    
    83   41  105 1    
    84   42   43 am   BACKBONE|DICT|INTERRES
    85   42  106 1    
    86   43   44 2    
    87   43   45 1    
    88   45   46 1    
    89   45   49 1    
    90   45  107 1    
    91   46   47 1    
    92   46  108 1    
    93   46  109 1    
    94   47   48 1    
    95   48  110 1    
    96   48  111 1    
    97   49   50 am   BACKBONE|DICT|INTERRES
    98   49  112 1    
    99   50   51 2    
   100   50   52 1    
   101   52   53 1    
   102   52   54 1    
   103   52  113 1    
   104   53  114 1    
   105   53  115 1    
   106   53  116 1    
   107   54   55 am   BACKBONE|DICT|INTERRES
   108   54  117 1    
   109   55   56 2    
   110   55   57 1    
   111   57   58 1    
   112   57   59 1    
   113   57  118 1    
   114   58  119 1    
   115   58  120 1    
   116   58  121 1    
   117   59   60 am   BACKBONE|DICT|INTERRES
   118   59  122 1    
   119   60   61 2    
   120   60   62 1    
   121   62   63 1    
   122   62   64 1    
   123   62  123 1    
   124   63  124 1    
   125   63  125 1    
   126   63  126 1    
   127   64   65 am   BACKBONE|DICT|INTERRES
   128   64  127 1    
   129   65   66 2    
@<TRIPOS>SUBSTRUCTURE
     1 UNK         1 GROUP             0       ****    0 ROOT    
