@<TRIPOS>MOLECULE
3R135
127   129    1
SMALL
USER_CHARGES


@<TRIPOS>ATOM
      1 CA        -80.1269   25.5142  -69.3597 C.3       0 UNK        -0.1998 
      2 C         -81.1291   26.0117  -70.3902 C.2       0 UNK         0.4909 
      3 O         -82.1049   26.6674  -70.0245 O.2       0 UNK        -0.5240 
      4 N         -80.9094   25.6941  -71.6704 N.am      1 UNK        -0.4739 
      5 CA        -81.8516   25.9320  -72.7615 C.3       1 UNK         0.0864 
      6 C6        -81.8174   27.3857  -73.3203 C.3       11 UNK        -0.0881 
      7 S7        -80.4682   27.7945  -74.4926 S.3       11 UNK        -0.2682 
      8 C8        -80.0374   29.5012  -73.9929 C.3       11 UNK         0.0289 
      9 C9        -78.7457   29.5622  -73.1862 C.ar      11 UNK        -0.0687 
     10 C10       -78.5516   28.7077  -72.1003 C.ar      11 UNK        -0.0823 
     11 C11       -77.3406   28.6949  -71.4068 C.ar      11 UNK        -0.0830 
     12 C12       -76.3327   29.5932  -71.7683 C.ar      11 UNK        -0.1021 
     13 C13       -76.5280   30.4954  -72.8209 C.ar      11 UNK        -0.0753 
     14 C14       -77.7380   30.4711  -73.5263 C.ar      11 UNK        -0.0933 
     15 C15       -75.4400   31.5085  -73.1655 C.3       11 UNK         0.0166 
     16 S16       -75.0348   31.5443  -74.9426 S.3       11 UNK        -0.2615 
     17 C17       -73.4646   32.4748  -74.9425 C.3       11 UNK        -0.0865 
     18 CA        -72.2390   31.5775  -75.2657 C.3       10 UNK         0.0862 
     19 C         -70.9513   32.4390  -75.4237 C.2       10 UNK         0.5551 
     20 N         -69.9326   32.2773  -74.5879 N.am      10 UNK        -0.7319 
     21 O         -70.8771   33.2701  -76.3255 O.2       10 UNK        -0.5018 
     22 N         -72.1236   30.4540  -74.3197 N.am      10 UNK        -0.4509 
     23 C         -71.4342   29.3264  -74.5343 C.2       10 UNK         0.4899 
     24 O         -70.7692   29.1169  -75.5499 O.2       10 UNK        -0.4839 
     25 CA        -71.4679   28.2630  -73.4199 C.3       9 UNK         0.0222 
     26 CB        -72.3946   28.6173  -72.2359 C.3       9 UNK        -0.1966 
     27 N         -71.8911   26.9804  -73.9783 N.am      9 UNK        -0.4218 
     28 C         -71.0767   25.9887  -74.3610 C.2       9 UNK         0.5020 
     29 O         -69.8494   26.0205  -74.2533 O.2       9 UNK        -0.5274 
     30 CA        -71.7446   24.7318  -74.9458 C.3       8 UNK         0.0270 
     31 CB        -72.3274   23.8551  -73.8250 C.3       8 UNK        -0.1976 
     32 N         -72.7888   25.0399  -75.9260 N.am      8 UNK        -0.4313 
     33 C         -72.5573   25.5338  -77.1511 C.2       8 UNK         0.5041 
     34 O         -71.4314   25.7422  -77.6051 O.2       8 UNK        -0.5577 
     35 CA        -73.7847   25.8374  -78.0281 C.3       7 UNK         0.0284 
     36 CB        -74.2729   24.5681  -78.7450 C.3       7 UNK        -0.1958 
     37 N         -74.8881   26.4252  -77.2689 N.am      7 UNK        -0.4454 
     38 C         -74.8788   27.6570  -76.7420 C.2       7 UNK         0.5089 
     39 O         -73.9725   28.4700  -76.9173 O.2       7 UNK        -0.5125 
     40 CA        -76.0755   28.0360  -75.8518 C.3       6 UNK         0.0408 
     41 CB        -77.2277   28.5976  -76.6987 C.3       6 UNK        -0.1791 
     42 N         -76.5491   26.9257  -75.0194 N.am      6 UNK        -0.4762 
     43 C         -75.8151   26.3586  -74.0494 C.2       6 UNK         0.5007 
     44 O         -74.6737   26.7187  -73.7662 O.2       6 UNK        -0.5032 
     45 CA        -76.4077   25.1271  -73.3324 C.3       5 UNK         0.0783 
     46 C46       -77.2571   25.4901  -72.0922 C.3       11 UNK        -0.0857 
     47 S47       -76.2464   26.2050  -70.7425 S.3       11 UNK        -0.2512 
     48 C48       -77.1414   27.7195  -70.2564 C.3       11 UNK         0.0225 
     49 N         -77.1270   24.2553  -74.2672 N.am      5 UNK        -0.4615 
     50 C         -76.5105   23.5488  -75.2260 C.2       4 UNK         0.5053 
     51 O         -75.2905   23.5422  -75.3905 O.2       4 UNK        -0.5105 
     52 CA        -77.4022   22.7533  -76.1898 C.3       4 UNK         0.0263 
     53 CB        -77.8891   21.4524  -75.5324 C.3       4 UNK        -0.1981 
     54 N         -78.5547   23.5147  -76.6733 N.am      4 UNK        -0.4224 
     55 C         -78.5088   24.6662  -77.3552 C.2       3 UNK         0.4895 
     56 O         -77.4569   25.2339  -77.6437 O.2       3 UNK        -0.5091 
     57 CA        -79.8394   25.3226  -77.7772 C.3       3 UNK         0.0250 
     58 CB        -80.1113   25.0949  -79.2766 C.3       3 UNK        -0.1996 
     59 N         -81.0091   24.9638  -76.9592 N.am      3 UNK        -0.4254 
     60 C         -81.6033   23.7694  -76.8103 C.2       2 UNK         0.5004 
     61 O         -81.2490   22.7534  -77.4092 O.2       2 UNK        -0.5226 
     62 CA        -82.7470   23.6847  -75.7788 C.3       2 UNK         0.0269 
     63 CB        -82.8985   22.2651  -75.1901 C.3       2 UNK        -0.1926 
     64 N         -82.6540   24.6758  -74.6948 N.am      2 UNK        -0.4687 
     65 C         -81.6461   24.8381  -73.8226 C.2       1 UNK         0.5165 
     66 O         -80.5928   24.1894  -73.8396 O.2       1 UNK        -0.5079 
     67 H67       -80.5651   24.7047  -68.7767 H         1 UNK         0.0900 
     68 H68       -79.8604   26.3165  -68.6727 H         1 UNK         0.0900 
     69 H69       -79.2138   25.1422  -69.8220 H         1 UNK         0.0900 
     70 H70       -80.1376   25.0954  -71.9356 H         1 UNK         0.2959 
     71 H71       -82.8522   25.7607  -72.3562 H         1 UNK         0.1079 
     72 H72       -81.8044   28.0885  -72.4864 H         1 UNK         0.0837 
     73 H73       -82.7544   27.5885  -73.8412 H         1 UNK         0.0837 
     74 H74       -79.9410   30.0988  -74.9004 H         1 UNK         0.0685 
     75 H75       -80.8464   29.9549  -73.4196 H         1 UNK         0.0685 
     76 H76       -79.3386   28.0247  -71.8166 H         1 UNK         0.1434 
     77 H77       -75.4010   29.5935  -71.2197 H         1 UNK         0.1329 
     78 H78       -77.8882   31.1561  -74.3492 H         1 UNK         0.1335 
     79 H79       -75.7685   32.5013  -72.8553 H         1 UNK         0.0680 
     80 H80       -74.5329   31.2906  -72.6005 H         1 UNK         0.0680 
     81 H81       -73.3302   32.9831  -73.9860 H         1 UNK         0.1032 
     82 H82       -73.5604   33.2663  -75.6885 H         1 UNK         0.1032 
     83 H83       -72.4164   31.1381  -76.2496 H         1 UNK         0.0461 
     84 H84       -69.9824   31.5931  -73.8508 H         1 UNK         0.3453 
     85 H85       -69.1037   32.8391  -74.7026 H         1 UNK         0.3453 
     86 H86       -72.6405   30.5453  -73.4597 H         1 UNK         0.2984 
     87 H87       -70.4522   28.1802  -73.0286 H         1 UNK         0.0554 
     88 H88       -72.3963   27.8210  -71.4912 H         1 UNK         0.0847 
     89 H89       -73.4277   28.7625  -72.5547 H         1 UNK         0.0847 
     90 H90       -72.0654   29.5237  -71.7263 H         1 UNK         0.0847 
     91 H91       -72.8976   26.8566  -74.0850 H         1 UNK         0.3141 
     92 H92       -70.9710   24.1524  -75.4546 H         1 UNK         0.0743 
     93 H93       -73.1166   24.3705  -73.2773 H         1 UNK         0.0784 
     94 H94       -72.7448   22.9293  -74.2217 H         1 UNK         0.0784 
     95 H95       -71.5561   23.5808  -73.1041 H         1 UNK         0.0784 
     96 H96       -73.7453   24.8220  -75.6632 H         1 UNK         0.3213 
     97 H97       -73.4784   26.5597  -78.7880 H         1 UNK         0.0855 
     98 H98       -73.4748   24.1268  -79.3433 H         1 UNK         0.0814 
     99 H99       -75.1013   24.7877  -79.4188 H         1 UNK         0.0814 
    100 H100      -74.6106   23.8086  -78.0392 H         1 UNK         0.0814 
    101 H101      -75.7268   25.8602  -77.1572 H         1 UNK         0.3105 
    102 H102      -75.7422   28.8177  -75.1700 H         1 UNK         0.0547 
    103 H103      -76.9016   29.4786  -77.2529 H         1 UNK         0.0837 
    104 H104      -77.5922   27.8731  -77.4261 H         1 UNK         0.0837 
    105 H105      -78.0671   28.9025  -76.0772 H         1 UNK         0.0837 
    106 H106      -77.4644   26.5539  -75.2241 H         1 UNK         0.3020 
    107 H107      -75.5546   24.5493  -72.9686 H         1 UNK         0.1245 
    108 H108      -77.7192   24.5853  -71.6952 H         1 UNK         0.0781 
    109 H109      -78.0796   26.1443  -72.3715 H         1 UNK         0.0781 
    110 H110      -76.5838   28.2108  -69.4577 H         1 UNK         0.0836 
    111 H111      -78.1022   27.4481  -69.8220 H         1 UNK         0.0836 
    112 H112      -78.1360   24.2192  -74.1985 H         1 UNK         0.3022 
    113 H113      -76.7953   22.4922  -77.0592 H         1 UNK         0.0747 
    114 H114      -78.4374   20.8320  -76.2416 H         1 UNK         0.0793 
    115 H115      -77.0487   20.8604  -75.1670 H         1 UNK         0.0793 
    116 H116      -78.5456   21.6492  -74.6835 H         1 UNK         0.0793 
    117 H117      -79.4689   23.0955  -76.5459 H         1 UNK         0.3047 
    118 H118      -79.7031   26.3951  -77.6294 H         1 UNK         0.0822 
    119 H119      -81.0105   25.6185  -79.6010 H         1 UNK         0.0807 
    120 H120      -80.2333   24.0377  -79.5141 H         1 UNK         0.0807 
    121 H121      -79.2837   25.4674  -79.8819 H         1 UNK         0.0807 
    122 H122      -81.3611   25.7136  -76.3794 H         1 UNK         0.2946 
    123 H123      -83.6601   23.9122  -76.3318 H         1 UNK         0.1144 
    124 H124      -83.1081   21.5343  -75.9724 H         1 UNK         0.0793 
    125 H125      -83.7221   22.2163  -74.4779 H         1 UNK         0.0793 
    126 H126      -81.9919   21.9411  -74.6776 H         1 UNK         0.0793 
    127 H127      -83.4580   25.2825  -74.6042 H         1 UNK         0.2896 
@<TRIPOS>BOND
     1    1    2 1    
     2    1   67 1    
     3    1   68 1    
     4    1   69 1    
     5    2    3 2    
     6    2    4 am   BACKBONE|DICT|INTERRES
     7    4    5 1    
     8    4   70 1    
     9    5    6 1    
    10    5   65 1    
    11    5   71 1    
    12    6    7 1    
    13    6   72 1    
    14    6   73 1    
    15    7    8 1    
    16    8    9 1    
    17    8   74 1    
    18    8   75 1    
    19    9   10 ar   
    20    9   14 ar   
    21   10   11 ar   
    22   10   76 1    
    23   11   12 ar   
    24   11   48 1    
    25   12   13 ar   
    26   12   77 1    
    27   13   14 ar   
    28   13   15 1    
    29   14   78 1    
    30   15   16 1    
    31   15   79 1    
    32   15   80 1    
    33   16   17 1    
    34   17   18 1    
    35   17   81 1    
    36   17   82 1    
    37   18   19 1    
    38   18   22 1    
    39   18   83 1    
    40   19   20 am   BACKBONE|DICT|INTERRES
    41   19   21 2    
    42   20   84 1    
    43   20   85 1    
    44   22   23 am   BACKBONE|DICT|INTERRES
    45   22   86 1    
    46   23   24 2    
    47   23   25 1    
    48   25   26 1    
    49   25   27 1    
    50   25   87 1    
    51   26   88 1    
    52   26   89 1    
    53   26   90 1    
    54   27   28 am   BACKBONE|DICT|INTERRES
    55   27   91 1    
    56   28   29 2    
    57   28   30 1    
    58   30   31 1    
    59   30   32 1    
    60   30   92 1    
    61   31   93 1    
    62   31   94 1    
    63   31   95 1    
    64   32   33 am   BACKBONE|DICT|INTERRES
    65   32   96 1    
    66   33   34 2    
    67   33   35 1    
    68   35   36 1    
    69   35   37 1    
    70   35   97 1    
    71   36   98 1    
    72   36   99 1    
    73   36  100 1    
    74   37   38 am   BACKBONE|DICT|INTERRES
    75   37  101 1    
    76   38   39 2    
    77   38   40 1    
    78   40   41 1    
    79   40   42 1    
    80   40  102 1    
    81   41  103 1    
    82   41  104 1    
    83   41  105 1    
    84   42   43 am   BACKBONE|DICT|INTERRES
    85   42  106 1    
    86   43   44 2    
    87   43   45 1    
    88   45   46 1    
    89   45   49 1    
    90   45  107 1    
    91   46   47 1    
    92   46  108 1    
    93   46  109 1    
    94   47   48 1    
    95   48  110 1    
    96   48  111 1    
    97   49   50 am   BACKBONE|DICT|INTERRES
    98   49  112 1    
    99   50   51 2    
   100   50   52 1    
   101   52   53 1    
   102   52   54 1    
   103   52  113 1    
   104   53  114 1    
   105   53  115 1    
   106   53  116 1    
   107   54   55 am   BACKBONE|DICT|INTERRES
   108   54  117 1    
   109   55   56 2    
   110   55   57 1    
   111   57   58 1    
   112   57   59 1    
   113   57  118 1    
   114   58  119 1    
   115   58  120 1    
   116   58  121 1    
   117   59   60 am   BACKBONE|DICT|INTERRES
   118   59  122 1    
   119   60   61 2    
   120   60   62 1    
   121   62   63 1    
   122   62   64 1    
   123   62  123 1    
   124   63  124 1    
   125   63  125 1    
   126   63  126 1    
   127   64   65 am   BACKBONE|DICT|INTERRES
   128   64  127 1    
   129   65   66 2    
@<TRIPOS>SUBSTRUCTURE
     1 UNK         1 GROUP             0       ****    0 ROOT    
