@<TRIPOS>MOLECULE
3R135
127   129    1
SMALL
USER_CHARGES


@<TRIPOS>ATOM
      1 CA        -79.2642   29.6262  -76.7193 C.3       0 UNK        -0.1998 
      2 C         -79.3225   28.9408  -75.3638 C.2       0 UNK         0.4909 
      3 O         -78.4355   28.1589  -75.0279 O.2       0 UNK        -0.5240 
      4 N         -80.3725   29.2120  -74.5790 N.am      1 UNK        -0.4739 
      5 CA        -80.6122   28.5881  -73.2722 C.3       1 UNK         0.0864 
      6 C6        -81.3790   29.5282  -72.3058 C.3       11 UNK        -0.0881 
      7 S7        -80.3940   30.9939  -71.8367 S.3       11 UNK        -0.2682 
      8 C8        -79.7915   30.5361  -70.1758 C.3       11 UNK         0.0289 
      9 C9        -78.6533   29.5273  -70.2466 C.ar      11 UNK        -0.0687 
     10 C10       -78.9267   28.1572  -70.2717 C.ar      11 UNK        -0.0823 
     11 C11       -77.8940   27.2252  -70.3975 C.ar      11 UNK        -0.0830 
     12 C12       -76.5707   27.6802  -70.4248 C.ar      11 UNK        -0.1021 
     13 C13       -76.2745   29.0452  -70.4093 C.ar      11 UNK        -0.0753 
     14 C14       -77.3265   29.9652  -70.3053 C.ar      11 UNK        -0.0933 
     15 C15       -74.8044   29.4567  -70.5069 C.3       11 UNK         0.0166 
     16 S16       -74.4750   31.1831  -71.0030 S.3       11 UNK        -0.2615 
     17 C17       -75.2125   31.3446  -72.6725 C.3       11 UNK        -0.0865 
     18 CA        -74.9641   30.1928  -73.7021 C.3       10 UNK         0.0862 
     19 C         -75.5367   30.5209  -75.1191 C.2       10 UNK         0.5551 
     20 N         -76.6188   31.2848  -75.2136 N.am      10 UNK        -0.7319 
     21 O         -75.0225   30.0811  -76.1448 O.2       10 UNK        -0.5018 
     22 N         -73.5620   29.7411  -73.7473 N.am      10 UNK        -0.4509 
     23 C         -72.5000   30.4912  -74.0737 C.2       10 UNK         0.4899 
     24 O         -72.5603   31.6847  -74.3728 O.2       10 UNK        -0.4839 
     25 CA        -71.1192   29.8108  -74.0292 C.3       9 UNK         0.0222 
     26 CB        -70.4343   30.0979  -72.6824 C.3       9 UNK        -0.1966 
     27 N         -71.1580   28.3611  -74.2477 N.am      9 UNK        -0.4218 
     28 C         -71.3752   27.7721  -75.4319 C.2       9 UNK         0.5020 
     29 O         -71.5632   28.3999  -76.4764 O.2       9 UNK        -0.5274 
     30 CA        -71.3356   26.2319  -75.4647 C.3       8 UNK         0.0270 
     31 CB        -71.6563   25.5732  -74.1056 C.3       8 UNK        -0.1976 
     32 N         -72.2895   25.7455  -76.4591 N.am      8 UNK        -0.4313 
     33 C         -71.9816   25.1866  -77.6372 C.2       8 UNK         0.5041 
     34 O         -70.8257   24.9707  -78.0068 O.2       8 UNK        -0.5577 
     35 CA        -73.1425   24.7774  -78.5671 C.3       7 UNK         0.0284 
     36 CB        -73.1823   23.2507  -78.7527 C.3       7 UNK        -0.1958 
     37 N         -74.4470   25.2278  -78.0785 N.am      7 UNK        -0.4454 
     38 C         -74.9795   26.4343  -78.3185 C.2       7 UNK         0.5089 
     39 O         -74.4765   27.2632  -79.0772 O.2       7 UNK        -0.5125 
     40 CA        -76.2883   26.7823  -77.5833 C.3       6 UNK         0.0408 
     41 CB        -77.4940   26.6075  -78.5196 C.3       6 UNK        -0.1791 
     42 N         -76.5150   25.9963  -76.3675 N.am      6 UNK        -0.4762 
     43 C         -75.7403   26.0119  -75.2742 C.2       6 UNK         0.5007 
     44 O         -74.7274   26.7021  -75.1645 O.2       6 UNK        -0.5032 
     45 CA        -76.1076   25.0410  -74.1368 C.3       5 UNK         0.0783 
     46 C46       -77.0343   25.7141  -73.1025 C.3       11 UNK        -0.0857 
     47 S47       -77.0907   24.7595  -71.5477 S.3       11 UNK        -0.2512 
     48 C48       -78.2423   25.7413  -70.5204 C.3       11 UNK         0.0225 
     49 N         -76.6713   23.7842  -74.6384 N.am      5 UNK        -0.4615 
     50 C         -75.9855   22.8523  -75.3113 C.2       4 UNK         0.5053 
     51 O         -74.7944   22.9585  -75.6003 O.2       4 UNK        -0.5105 
     52 CA        -76.7631   21.5968  -75.7399 C.3       4 UNK         0.0263 
     53 CB        -76.7877   20.5654  -74.6005 C.3       4 UNK        -0.1981 
     54 N         -78.1355   21.9050  -76.1506 N.am      4 UNK        -0.4224 
     55 C         -78.4586   22.4724  -77.3214 C.2       3 UNK         0.4895 
     56 O         -77.6435   22.7302  -78.2076 O.2       3 UNK        -0.5091 
     57 CA        -79.9404   22.8416  -77.5275 C.3       3 UNK         0.0250 
     58 CB        -80.7325   21.6304  -78.0460 C.3       3 UNK        -0.1996 
     59 N         -80.6005   23.3883  -76.3325 N.am      3 UNK        -0.4254 
     60 C         -80.1962   24.4889  -75.6840 C.2       2 UNK         0.5004 
     61 O         -79.1830   25.1202  -75.9891 O.2       2 UNK        -0.5226 
     62 CA        -81.0290   24.9460  -74.4795 C.3       2 UNK         0.0269 
     63 CB        -80.8216   24.0102  -73.2734 C.3       2 UNK        -0.1926 
     64 N         -80.6083   26.3013  -74.1352 N.am      2 UNK        -0.4687 
     65 C         -81.2998   27.2157  -73.4506 C.2       1 UNK         0.5165 
     66 O         -82.4274   27.0148  -72.9958 O.2       1 UNK        -0.5079 
     67 H67       -79.6650   30.6383  -76.6691 H         1 UNK         0.0900 
     68 H68       -79.8392   29.0596  -77.4510 H         1 UNK         0.0900 
     69 H69       -78.2343   29.6845  -77.0707 H         1 UNK         0.0900 
     70 H70       -81.0857   29.8513  -74.8996 H         1 UNK         0.2959 
     71 H71       -79.6431   28.3765  -72.8181 H         1 UNK         0.1079 
     72 H72       -82.3087   29.8687  -72.7650 H         1 UNK         0.0837 
     73 H73       -81.6758   29.0011  -71.3976 H         1 UNK         0.0837 
     74 H74       -79.4504   31.4399  -69.6687 H         1 UNK         0.0685 
     75 H75       -80.6136   30.1464  -69.5735 H         1 UNK         0.0685 
     76 H76       -79.9518   27.8165  -70.2275 H         1 UNK         0.1434 
     77 H77       -75.7605   26.9679  -70.4972 H         1 UNK         0.1329 
     78 H78       -77.1244   31.0262  -70.2782 H         1 UNK         0.1335 
     79 H79       -74.3452   29.2970  -69.5307 H         1 UNK         0.0680 
     80 H80       -74.2815   28.7938  -71.1972 H         1 UNK         0.0680 
     81 H81       -74.8503   32.2888  -73.0834 H         1 UNK         0.1032 
     82 H82       -76.2846   31.4837  -72.5303 H         1 UNK         0.1032 
     83 H83       -75.5311   29.3228  -73.3689 H         1 UNK         0.0461 
     84 H84       -76.9735   31.5049  -76.1297 H         1 UNK         0.3453 
     85 H85       -77.0811   31.6487  -74.3970 H         1 UNK         0.3453 
     86 H86       -73.4188   28.7544  -73.5955 H         1 UNK         0.2984 
     87 H87       -70.5096   30.2561  -74.8185 H         1 UNK         0.0554 
     88 H88       -69.4222   29.6937  -72.6546 H         1 UNK         0.0847 
     89 H89       -70.9917   29.6736  -71.8461 H         1 UNK         0.0847 
     90 H90       -70.3564   31.1718  -72.5066 H         1 UNK         0.0847 
     91 H91       -70.9976   27.7740  -73.4419 H         1 UNK         0.3141 
     92 H92       -70.3194   25.9482  -75.7452 H         1 UNK         0.0743 
     93 H93       -70.8785   25.7758  -73.3686 H         1 UNK         0.0784 
     94 H94       -72.6057   25.9194  -73.6956 H         1 UNK         0.0784 
     95 H95       -71.7191   24.4890  -74.2031 H         1 UNK         0.0784 
     96 H96       -73.2600   25.9710  -76.2618 H         1 UNK         0.3213 
     97 H97       -72.9502   25.2297  -79.5424 H         1 UNK         0.0855 
     98 H98       -72.2525   22.8873  -79.1922 H         1 UNK         0.0814 
     99 H99       -73.9927   22.9512  -79.4175 H         1 UNK         0.0814 
    100 H100      -73.3163   22.7309  -77.8039 H         1 UNK         0.0814 
    101 H101      -74.9298   24.6106  -77.4382 H         1 UNK         0.3105 
    102 H102      -76.2317   27.8318  -77.2883 H         1 UNK         0.0547 
    103 H103      -77.3805   27.2095  -79.4220 H         1 UNK         0.0837 
    104 H104      -77.6144   25.5685  -78.8291 H         1 UNK         0.0837 
    105 H105      -78.4187   26.9199  -78.0345 H         1 UNK         0.0837 
    106 H106      -77.3888   25.4751  -76.3234 H         1 UNK         0.3020 
    107 H107      -75.1660   24.7989  -73.6377 H         1 UNK         0.1245 
    108 H108      -78.0429   25.8234  -73.4971 H         1 UNK         0.0781 
    109 H109      -76.6848   26.7244  -72.8876 H         1 UNK         0.0781 
    110 H110      -78.2759   25.3064  -69.5209 H         1 UNK         0.0836 
    111 H111      -79.2429   25.6273  -70.9407 H         1 UNK         0.0836 
    112 H112      -77.6546   23.6400  -74.4721 H         1 UNK         0.3022 
    113 H113      -76.2366   21.1532  -76.5881 H         1 UNK         0.0747 
    114 H114      -77.2780   19.6427  -74.9115 H         1 UNK         0.0793 
    115 H115      -75.7747   20.3037  -74.2912 H         1 UNK         0.0793 
    116 H116      -77.3092   20.9436  -73.7201 H         1 UNK         0.0793 
    117 H117      -78.8726   21.7123  -75.4883 H         1 UNK         0.3047 
    118 H118      -79.9707   23.6186  -78.2947 H         1 UNK         0.0822 
    119 H119      -81.7541   21.9065  -78.3081 H         1 UNK         0.0807 
    120 H120      -80.7794   20.8295  -77.3071 H         1 UNK         0.0807 
    121 H121      -80.2709   21.2180  -78.9446 H         1 UNK         0.0807 
    122 H122      -81.4357   22.9140  -76.0193 H         1 UNK         0.2946 
    123 H123      -82.0821   24.9592  -74.7690 H         1 UNK         0.1144 
    124 H124      -81.1470   22.9944  -73.5000 H         1 UNK         0.0793 
    125 H125      -81.3958   24.3431  -72.4086 H         1 UNK         0.0793 
    126 H126      -79.7738   23.9594  -72.9765 H         1 UNK         0.0793 
    127 H127      -79.7259   26.5817  -74.5597 H         1 UNK         0.2896 
@<TRIPOS>BOND
     1    1    2 1    
     2    1   67 1    
     3    1   68 1    
     4    1   69 1    
     5    2    3 2    
     6    2    4 am   BACKBONE|DICT|INTERRES
     7    4    5 1    
     8    4   70 1    
     9    5    6 1    
    10    5   65 1    
    11    5   71 1    
    12    6    7 1    
    13    6   72 1    
    14    6   73 1    
    15    7    8 1    
    16    8    9 1    
    17    8   74 1    
    18    8   75 1    
    19    9   10 ar   
    20    9   14 ar   
    21   10   11 ar   
    22   10   76 1    
    23   11   12 ar   
    24   11   48 1    
    25   12   13 ar   
    26   12   77 1    
    27   13   14 ar   
    28   13   15 1    
    29   14   78 1    
    30   15   16 1    
    31   15   79 1    
    32   15   80 1    
    33   16   17 1    
    34   17   18 1    
    35   17   81 1    
    36   17   82 1    
    37   18   19 1    
    38   18   22 1    
    39   18   83 1    
    40   19   20 am   BACKBONE|DICT|INTERRES
    41   19   21 2    
    42   20   84 1    
    43   20   85 1    
    44   22   23 am   BACKBONE|DICT|INTERRES
    45   22   86 1    
    46   23   24 2    
    47   23   25 1    
    48   25   26 1    
    49   25   27 1    
    50   25   87 1    
    51   26   88 1    
    52   26   89 1    
    53   26   90 1    
    54   27   28 am   BACKBONE|DICT|INTERRES
    55   27   91 1    
    56   28   29 2    
    57   28   30 1    
    58   30   31 1    
    59   30   32 1    
    60   30   92 1    
    61   31   93 1    
    62   31   94 1    
    63   31   95 1    
    64   32   33 am   BACKBONE|DICT|INTERRES
    65   32   96 1    
    66   33   34 2    
    67   33   35 1    
    68   35   36 1    
    69   35   37 1    
    70   35   97 1    
    71   36   98 1    
    72   36   99 1    
    73   36  100 1    
    74   37   38 am   BACKBONE|DICT|INTERRES
    75   37  101 1    
    76   38   39 2    
    77   38   40 1    
    78   40   41 1    
    79   40   42 1    
    80   40  102 1    
    81   41  103 1    
    82   41  104 1    
    83   41  105 1    
    84   42   43 am   BACKBONE|DICT|INTERRES
    85   42  106 1    
    86   43   44 2    
    87   43   45 1    
    88   45   46 1    
    89   45   49 1    
    90   45  107 1    
    91   46   47 1    
    92   46  108 1    
    93   46  109 1    
    94   47   48 1    
    95   48  110 1    
    96   48  111 1    
    97   49   50 am   BACKBONE|DICT|INTERRES
    98   49  112 1    
    99   50   51 2    
   100   50   52 1    
   101   52   53 1    
   102   52   54 1    
   103   52  113 1    
   104   53  114 1    
   105   53  115 1    
   106   53  116 1    
   107   54   55 am   BACKBONE|DICT|INTERRES
   108   54  117 1    
   109   55   56 2    
   110   55   57 1    
   111   57   58 1    
   112   57   59 1    
   113   57  118 1    
   114   58  119 1    
   115   58  120 1    
   116   58  121 1    
   117   59   60 am   BACKBONE|DICT|INTERRES
   118   59  122 1    
   119   60   61 2    
   120   60   62 1    
   121   62   63 1    
   122   62   64 1    
   123   62  123 1    
   124   63  124 1    
   125   63  125 1    
   126   63  126 1    
   127   64   65 am   BACKBONE|DICT|INTERRES
   128   64  127 1    
   129   65   66 2    
@<TRIPOS>SUBSTRUCTURE
     1 UNK         1 GROUP             0       ****    0 ROOT    
