@<TRIPOS>MOLECULE
3R135
127   129    1
SMALL
USER_CHARGES


@<TRIPOS>ATOM
      1 CA        -83.8559   28.1077  -71.1082 C.3       0 UNK        -0.1998 
      2 C         -83.2943   28.9184  -72.2660 C.2       0 UNK         0.4909 
      3 O         -84.0490   29.3434  -73.1408 O.2       0 UNK        -0.5240 
      4 N         -81.9730   29.1343  -72.2775 N.am      1 UNK        -0.4739 
      5 CA        -81.2533   29.8774  -73.3202 C.3       1 UNK         0.0864 
      6 C6        -79.8510   30.3233  -72.8438 C.3       11 UNK        -0.0881 
      7 S7        -79.8908   31.4397  -71.3947 S.3       11 UNK        -0.2682 
      8 C8        -79.7787   30.3139  -69.9564 C.3       11 UNK         0.0289 
      9 C9        -78.7175   29.2327  -70.1159 C.ar      11 UNK        -0.0687 
     10 C10       -79.0745   27.8805  -70.0642 C.ar      11 UNK        -0.0823 
     11 C11       -78.1138   26.8835  -70.2601 C.ar      11 UNK        -0.0830 
     12 C12       -76.7846   27.2517  -70.4924 C.ar      11 UNK        -0.1021 
     13 C13       -76.4238   28.5972  -70.5863 C.ar      11 UNK        -0.0753 
     14 C14       -77.3875   29.5839  -70.3648 C.ar      11 UNK        -0.0933 
     15 C15       -75.0105   28.9823  -71.0030 C.3       11 UNK         0.0166 
     16 S16       -74.6488   28.4635  -72.7175 S.3       11 UNK        -0.2615 
     17 C17       -76.0606   29.1851  -73.6368 C.3       11 UNK        -0.0865 
     18 CA        -75.6820   29.8146  -75.0011 C.3       10 UNK         0.0862 
     19 C         -74.9089   31.1596  -74.8490 C.2       10 UNK         0.5551 
     20 N         -73.7363   31.3378  -75.4477 N.am      10 UNK        -0.7319 
     21 O         -75.3951   32.0712  -74.1845 O.2       10 UNK        -0.5018 
     22 N         -75.0452   28.8273  -75.8811 N.am      10 UNK        -0.4509 
     23 C         -75.0417   28.8728  -77.2178 C.2       10 UNK         0.4899 
     24 O         -75.6651   29.7045  -77.8787 O.2       10 UNK        -0.4839 
     25 CA        -74.1841   27.8041  -77.9223 C.3       9 UNK         0.0222 
     26 CB        -73.9200   28.1277  -79.4079 C.3       9 UNK        -0.1966 
     27 N         -72.9256   27.5237  -77.2188 N.am      9 UNK        -0.4218 
     28 C         -71.9413   28.3959  -76.9373 C.2       9 UNK         0.5020 
     29 O         -71.9995   29.5974  -77.2025 O.2       9 UNK        -0.5274 
     30 CA        -70.6887   27.8651  -76.2090 C.3       8 UNK         0.0270 
     31 CB        -70.6831   28.3484  -74.7482 C.3       8 UNK        -0.1976 
     32 N         -70.5658   26.4059  -76.2225 N.am      8 UNK        -0.4313 
     33 C         -70.3596   25.6457  -77.3072 C.2       8 UNK         0.5041 
     34 O         -70.0900   26.1021  -78.4186 O.2       8 UNK        -0.5577 
     35 CA        -70.5181   24.1202  -77.1365 C.3       7 UNK         0.0284 
     36 CB        -69.1442   23.4302  -77.1754 C.3       7 UNK        -0.1958 
     37 N         -71.2308   23.7015  -75.9192 N.am      7 UNK        -0.4454 
     38 C         -72.4873   24.0319  -75.5878 C.2       7 UNK         0.5089 
     39 O         -73.2070   24.7725  -76.2612 O.2       7 UNK        -0.5125 
     40 CA        -72.9787   23.5200  -74.2316 C.3       6 UNK         0.0408 
     41 CB        -72.3773   24.3754  -73.0958 C.3       6 UNK        -0.1791 
     42 N         -74.4387   23.5758  -74.1796 N.am      6 UNK        -0.4762 
     43 C         -75.1895   22.9628  -73.2553 C.2       6 UNK         0.5007 
     44 O         -74.7279   22.2097  -72.3960 O.2       6 UNK        -0.5032 
     45 CA        -76.7036   23.2591  -73.2506 C.3       5 UNK         0.0783 
     46 C46       -76.9697   24.5469  -72.4366 C.3       11 UNK        -0.0857 
     47 S47       -78.7126   24.7474  -71.9383 S.3       11 UNK        -0.2512 
     48 C48       -78.5193   25.4139  -70.2476 C.3       11 UNK         0.0225 
     49 N         -77.2899   23.3198  -74.5938 N.am      5 UNK        -0.4615 
     50 C         -77.3430   22.2874  -75.4490 C.2       4 UNK         0.5053 
     51 O         -76.8879   21.1718  -75.1940 O.2       4 UNK        -0.5105 
     52 CA        -78.0403   22.5029  -76.8067 C.3       4 UNK         0.0263 
     53 CB        -79.3760   21.7409  -76.8490 C.3       4 UNK        -0.1981 
     54 N         -78.2923   23.9060  -77.1398 N.am      4 UNK        -0.4224 
     55 C         -77.3578   24.8044  -77.4801 C.2       3 UNK         0.4895 
     56 O         -76.1619   24.5366  -77.5752 O.2       3 UNK        -0.5091 
     57 CA        -77.8310   26.2447  -77.7554 C.3       3 UNK         0.0250 
     58 CB        -77.7478   26.5703  -79.2555 C.3       3 UNK        -0.1996 
     59 N         -79.1894   26.5156  -77.2724 N.am      3 UNK        -0.4254 
     60 C         -79.5031   26.6754  -75.9804 C.2       2 UNK         0.5004 
     61 O         -78.6750   26.6446  -75.0677 O.2       2 UNK        -0.5226 
     62 CA        -80.9970   26.8152  -75.6521 C.3       2 UNK         0.0269 
     63 CB        -81.5894   25.4451  -75.2810 C.3       2 UNK        -0.1926 
     64 N         -81.2023   27.7363  -74.5374 N.am      2 UNK        -0.4687 
     65 C         -81.1225   29.0710  -74.6299 C.2       1 UNK         0.5165 
     66 O         -80.9468   29.6691  -75.6928 O.2       1 UNK        -0.5079 
     67 H67       -84.3477   27.2101  -71.4824 H         1 UNK         0.0900 
     68 H68       -83.0796   27.8021  -70.4074 H         1 UNK         0.0900 
     69 H69       -84.5917   28.6967  -70.5621 H         1 UNK         0.0900 
     70 H70       -81.4005   28.7712  -71.5316 H         1 UNK         0.2959 
     71 H71       -81.8319   30.7730  -73.5579 H         1 UNK         0.1079 
     72 H72       -79.3476   30.8747  -73.6406 H         1 UNK         0.0837 
     73 H73       -79.2161   29.4578  -72.6526 H         1 UNK         0.0837 
     74 H74       -79.5486   30.9047  -69.0688 H         1 UNK         0.0685 
     75 H75       -80.7602   29.8731  -69.7776 H         1 UNK         0.0685 
     76 H76       -80.1031   27.5997  -69.8850 H         1 UNK         0.1434 
     77 H77       -76.0281   26.4989  -70.6531 H         1 UNK         0.1329 
     78 H78       -77.1173   30.6286  -70.4387 H         1 UNK         0.1335 
     79 H79       -74.2918   28.5153  -70.3283 H         1 UNK         0.0680 
     80 H80       -74.8599   30.0600  -70.9207 H         1 UNK         0.0680 
     81 H81       -76.7950   28.3921  -73.7917 H         1 UNK         0.1032 
     82 H82       -76.5679   29.9286  -73.0206 H         1 UNK         0.1032 
     83 H83       -76.6262   30.0925  -75.4740 H         1 UNK         0.0461 
     84 H84       -73.3231   30.6169  -76.0278 H         1 UNK         0.3453 
     85 H85       -73.2624   32.2197  -75.3381 H         1 UNK         0.3453 
     86 H86       -74.4924   28.1229  -75.4149 H         1 UNK         0.2984 
     87 H87       -74.7571   26.8776  -77.8859 H         1 UNK         0.0554 
     88 H88       -73.3322   27.3436  -79.8853 H         1 UNK         0.0847 
     89 H89       -73.3833   29.0694  -79.5274 H         1 UNK         0.0847 
     90 H90       -74.8550   28.2139  -79.9627 H         1 UNK         0.0847 
     91 H91       -72.8176   26.5586  -76.9150 H         1 UNK         0.3141 
     92 H92       -69.8164   28.2818  -76.7167 H         1 UNK         0.0743 
     93 H93       -71.5343   27.9576  -74.1885 H         1 UNK         0.0784 
     94 H94       -69.7719   28.0458  -74.2318 H         1 UNK         0.0784 
     95 H95       -70.7348   29.4370  -74.6962 H         1 UNK         0.0784 
     96 H96       -70.7565   25.9308  -75.3533 H         1 UNK         0.3213 
     97 H97       -71.1020   23.7685  -77.9898 H         1 UNK         0.0855 
     98 H98       -68.5218   23.7215  -76.3283 H         1 UNK         0.0814 
     99 H99       -68.6002   23.6929  -78.0840 H         1 UNK         0.0814 
    100 H100      -69.2429   22.3445  -77.1645 H         1 UNK         0.0814 
    101 H101      -70.7154   23.1019  -75.2897 H         1 UNK         0.3105 
    102 H102      -72.6592   22.4815  -74.1220 H         1 UNK         0.0547 
    103 H103      -71.2871   24.3724  -73.1277 H         1 UNK         0.0837 
    104 H104      -72.7043   25.4144  -73.1596 H         1 UNK         0.0837 
    105 H105      -72.6625   23.9990  -72.1136 H         1 UNK         0.0837 
    106 H106      -74.8706   24.1381  -74.9044 H         1 UNK         0.3020 
    107 H107      -77.1773   22.4234  -72.7299 H         1 UNK         0.1245 
    108 H108      -76.6579   25.4346  -72.9916 H         1 UNK         0.0781 
    109 H109      -76.3673   24.5245  -71.5275 H         1 UNK         0.0781 
    110 H110      -77.7893   24.8253  -69.6900 H         1 UNK         0.0836 
    111 H111      -79.4656   25.2917  -69.7185 H         1 UNK         0.0836 
    112 H112      -77.7043   24.2021  -74.8610 H         1 UNK         0.3022 
    113 H113      -77.3840   22.0865  -77.5741 H         1 UNK         0.0747 
    114 H114      -79.8470   21.8172  -77.8293 H         1 UNK         0.0793 
    115 H115      -79.2278   20.6790  -76.6471 H         1 UNK         0.0793 
    116 H116      -80.0799   22.1179  -76.1057 H         1 UNK         0.0793 
    117 H117      -79.2516   24.2145  -77.0973 H         1 UNK         0.3047 
    118 H118      -77.1484   26.9083  -77.2234 H         1 UNK         0.0822 
    119 H119      -78.4360   25.9599  -79.8415 H         1 UNK         0.0807 
    120 H120      -76.7433   26.3883  -79.6404 H         1 UNK         0.0807 
    121 H121      -77.9786   27.6187  -79.4460 H         1 UNK         0.0807 
    122 H122      -79.9207   26.5511  -77.9690 H         1 UNK         0.2946 
    123 H123      -81.5241   27.2034  -76.5271 H         1 UNK         0.1144 
    124 H124      -82.6493   25.5242  -75.0376 H         1 UNK         0.0793 
    125 H125      -81.0804   25.0045  -74.4220 H         1 UNK         0.0793 
    126 H126      -81.5019   24.7407  -76.1090 H         1 UNK         0.0793 
    127 H127      -81.3070   27.3260  -73.6214 H         1 UNK         0.2896 
@<TRIPOS>BOND
     1    1    2 1    
     2    1   67 1    
     3    1   68 1    
     4    1   69 1    
     5    2    3 2    
     6    2    4 am   BACKBONE|DICT|INTERRES
     7    4    5 1    
     8    4   70 1    
     9    5    6 1    
    10    5   65 1    
    11    5   71 1    
    12    6    7 1    
    13    6   72 1    
    14    6   73 1    
    15    7    8 1    
    16    8    9 1    
    17    8   74 1    
    18    8   75 1    
    19    9   10 ar   
    20    9   14 ar   
    21   10   11 ar   
    22   10   76 1    
    23   11   12 ar   
    24   11   48 1    
    25   12   13 ar   
    26   12   77 1    
    27   13   14 ar   
    28   13   15 1    
    29   14   78 1    
    30   15   16 1    
    31   15   79 1    
    32   15   80 1    
    33   16   17 1    
    34   17   18 1    
    35   17   81 1    
    36   17   82 1    
    37   18   19 1    
    38   18   22 1    
    39   18   83 1    
    40   19   20 am   BACKBONE|DICT|INTERRES
    41   19   21 2    
    42   20   84 1    
    43   20   85 1    
    44   22   23 am   BACKBONE|DICT|INTERRES
    45   22   86 1    
    46   23   24 2    
    47   23   25 1    
    48   25   26 1    
    49   25   27 1    
    50   25   87 1    
    51   26   88 1    
    52   26   89 1    
    53   26   90 1    
    54   27   28 am   BACKBONE|DICT|INTERRES
    55   27   91 1    
    56   28   29 2    
    57   28   30 1    
    58   30   31 1    
    59   30   32 1    
    60   30   92 1    
    61   31   93 1    
    62   31   94 1    
    63   31   95 1    
    64   32   33 am   BACKBONE|DICT|INTERRES
    65   32   96 1    
    66   33   34 2    
    67   33   35 1    
    68   35   36 1    
    69   35   37 1    
    70   35   97 1    
    71   36   98 1    
    72   36   99 1    
    73   36  100 1    
    74   37   38 am   BACKBONE|DICT|INTERRES
    75   37  101 1    
    76   38   39 2    
    77   38   40 1    
    78   40   41 1    
    79   40   42 1    
    80   40  102 1    
    81   41  103 1    
    82   41  104 1    
    83   41  105 1    
    84   42   43 am   BACKBONE|DICT|INTERRES
    85   42  106 1    
    86   43   44 2    
    87   43   45 1    
    88   45   46 1    
    89   45   49 1    
    90   45  107 1    
    91   46   47 1    
    92   46  108 1    
    93   46  109 1    
    94   47   48 1    
    95   48  110 1    
    96   48  111 1    
    97   49   50 am   BACKBONE|DICT|INTERRES
    98   49  112 1    
    99   50   51 2    
   100   50   52 1    
   101   52   53 1    
   102   52   54 1    
   103   52  113 1    
   104   53  114 1    
   105   53  115 1    
   106   53  116 1    
   107   54   55 am   BACKBONE|DICT|INTERRES
   108   54  117 1    
   109   55   56 2    
   110   55   57 1    
   111   57   58 1    
   112   57   59 1    
   113   57  118 1    
   114   58  119 1    
   115   58  120 1    
   116   58  121 1    
   117   59   60 am   BACKBONE|DICT|INTERRES
   118   59  122 1    
   119   60   61 2    
   120   60   62 1    
   121   62   63 1    
   122   62   64 1    
   123   62  123 1    
   124   63  124 1    
   125   63  125 1    
   126   63  126 1    
   127   64   65 am   BACKBONE|DICT|INTERRES
   128   64  127 1    
   129   65   66 2    
@<TRIPOS>SUBSTRUCTURE
     1 UNK         1 GROUP             0       ****    0 ROOT    
