@<TRIPOS>MOLECULE
3R135
127   129    1
SMALL
USER_CHARGES


@<TRIPOS>ATOM
      1 CA        -84.7107   27.1182  -73.0972 C.3       0 UNK        -0.1998 
      2 C         -83.6229   27.3285  -72.0471 C.2       0 UNK         0.4909 
      3 O         -83.8501   27.0270  -70.8772 O.2       0 UNK        -0.5240 
      4 N         -82.4353   27.8454  -72.3954 N.am      1 UNK        -0.4739 
      5 CA        -81.9760   28.2144  -73.7429 C.3       1 UNK         0.0864 
      6 C6        -80.6839   29.0654  -73.6923 C.3       11 UNK        -0.0881 
      7 S7        -80.9427   30.6978  -72.9077 S.3       11 UNK        -0.2682 
      8 C8        -80.5264   30.4186  -71.1515 C.3       11 UNK         0.0289 
      9 C9        -79.0903   29.9552  -70.9610 C.ar      11 UNK        -0.0687 
     10 C10       -78.8155   28.6092  -70.6978 C.ar      11 UNK        -0.0823 
     11 C11       -77.4953   28.1635  -70.5947 C.ar      11 UNK        -0.0830 
     12 C12       -76.4505   29.0841  -70.6958 C.ar      11 UNK        -0.1021 
     13 C13       -76.7121   30.4333  -70.9426 C.ar      11 UNK        -0.0753 
     14 C14       -78.0348   30.8661  -71.0735 C.ar      11 UNK        -0.0933 
     15 C15       -75.5556   31.4048  -71.0995 C.3       11 UNK         0.0166 
     16 S16       -74.9040   31.3559  -72.8001 S.3       11 UNK        -0.2615 
     17 C17       -73.0993   31.4141  -72.5100 C.3       11 UNK        -0.0865 
     18 CA        -72.3681   30.0618  -72.7533 C.3       10 UNK         0.0862 
     19 C         -72.7490   28.9454  -71.7448 C.2       10 UNK         0.5551 
     20 N         -72.4726   29.1486  -70.4637 N.am      10 UNK        -0.7319 
     21 O         -73.2883   27.9001  -72.1046 O.2       10 UNK        -0.5018 
     22 N         -72.4888   29.5897  -74.1355 N.am      10 UNK        -0.4509 
     23 C         -71.8041   30.0661  -75.1796 C.2       10 UNK         0.4899 
     24 O         -71.0362   31.0281  -75.1157 O.2       10 UNK        -0.4839 
     25 CA        -72.0034   29.3195  -76.5111 C.3       9 UNK         0.0222 
     26 CB        -71.0133   29.7521  -77.6130 C.3       9 UNK        -0.1966 
     27 N         -71.9901   27.8648  -76.3293 N.am      9 UNK        -0.4218 
     28 C         -70.9890   27.0959  -75.8738 C.2       9 UNK         0.5020 
     29 O         -69.8682   27.5146  -75.5806 O.2       9 UNK        -0.5274 
     30 CA        -71.2920   25.5952  -75.7047 C.3       8 UNK         0.0270 
     31 CB        -71.7015   25.2964  -74.2533 C.3       8 UNK        -0.1976 
     32 N         -72.3340   25.1084  -76.6146 N.am      8 UNK        -0.4313 
     33 C         -72.1897   25.0036  -77.9440 C.2       8 UNK         0.5041 
     34 O         -71.1312   25.2160  -78.5373 O.2       8 UNK        -0.5577 
     35 CA        -73.4402   24.6236  -78.7537 C.3       7 UNK         0.0284 
     36 CB        -73.6580   23.1022  -78.7348 C.3       7 UNK        -0.1958 
     37 N         -74.6499   25.3071  -78.2867 N.am      7 UNK        -0.4454 
     38 C         -74.8605   26.6298  -78.3628 C.2       7 UNK         0.5089 
     39 O         -74.0748   27.4207  -78.8836 O.2       7 UNK        -0.5125 
     40 CA        -76.1470   27.1718  -77.7146 C.3       6 UNK         0.0408 
     41 CB        -77.3527   26.9940  -78.6499 C.3       6 UNK        -0.1791 
     42 N         -76.4313   26.5553  -76.4174 N.am      6 UNK        -0.4762 
     43 C         -75.6553   26.6733  -75.3287 C.2       6 UNK         0.5007 
     44 O         -74.6321   27.3565  -75.2853 O.2       6 UNK        -0.5032 
     45 CA        -76.0801   25.8541  -74.0963 C.3       5 UNK         0.0783 
     46 C46       -77.1831   26.6083  -73.3180 C.3       11 UNK        -0.0857 
     47 S47       -77.8134   25.7004  -71.8601 S.3       11 UNK        -0.2512 
     48 C48       -77.1851   26.6796  -70.4520 C.3       11 UNK         0.0225 
     49 N         -76.4865   24.5007  -74.4856 N.am      5 UNK        -0.4615 
     50 C         -75.6655   23.5716  -74.9927 C.2       4 UNK         0.5053 
     51 O         -74.4591   23.7431  -75.1633 O.2       4 UNK        -0.5105 
     52 CA        -76.3090   22.2434  -75.4254 C.3       4 UNK         0.0263 
     53 CB        -76.4932   21.3129  -74.2162 C.3       4 UNK        -0.1981 
     54 N         -77.5957   22.4341  -76.1001 N.am      4 UNK        -0.4224 
     55 C         -77.7504   23.0666  -77.2728 C.2       3 UNK         0.4895 
     56 O         -76.8152   23.4957  -77.9456 O.2       3 UNK        -0.5091 
     57 CA        -79.1908   23.3063  -77.7571 C.3       3 UNK         0.0250 
     58 CB        -79.6722   22.1277  -78.6178 C.3       3 UNK        -0.1996 
     59 N         -80.1460   23.5452  -76.6697 N.am      3 UNK        -0.4254 
     60 C         -80.0685   24.5538  -75.7899 C.2       2 UNK         0.5004 
     61 O         -79.1664   25.3953  -75.7909 O.2       2 UNK        -0.5226 
     62 CA        -81.1438   24.5642  -74.6896 C.3       2 UNK         0.0269 
     63 CB        -80.8031   23.5277  -73.6049 C.3       2 UNK        -0.1926 
     64 N         -81.3128   25.8690  -74.0462 N.am      2 UNK        -0.4687 
     65 C         -81.7794   26.9756  -74.6425 C.2       1 UNK         0.5165 
     66 O         -82.1118   27.0295  -75.8271 O.2       1 UNK        -0.5079 
     67 H67       -84.8322   27.9936  -73.7335 H         1 UNK         0.0900 
     68 H68       -84.4826   26.2550  -73.7215 H         1 UNK         0.0900 
     69 H69       -85.6704   26.9329  -72.6151 H         1 UNK         0.0900 
     70 H70       -81.7568   27.9877  -71.6639 H         1 UNK         0.2959 
     71 H71       -82.7491   28.8265  -74.2113 H         1 UNK         0.1079 
     72 H72       -80.3264   29.2620  -74.7053 H         1 UNK         0.0837 
     73 H73       -79.8751   28.5250  -73.2008 H         1 UNK         0.0837 
     74 H74       -81.2263   29.7057  -70.7151 H         1 UNK         0.0685 
     75 H75       -80.6756   31.3523  -70.6074 H         1 UNK         0.0685 
     76 H76       -79.6230   27.8944  -70.6247 H         1 UNK         0.1434 
     77 H77       -75.4272   28.7445  -70.6235 H         1 UNK         0.1329 
     78 H78       -78.2435   31.9057  -71.2868 H         1 UNK         0.1335 
     79 H79       -74.7779   31.1480  -70.3791 H         1 UNK         0.0680 
     80 H80       -75.8700   32.4225  -70.8633 H         1 UNK         0.0680 
     81 H81       -72.8897   31.7889  -71.5074 H         1 UNK         0.1032 
     82 H82       -72.6863   32.1709  -73.1782 H         1 UNK         0.1032 
     83 H83       -71.3033   30.2334  -72.5827 H         1 UNK         0.0461 
     84 H84       -72.7034   28.4299  -69.7963 H         1 UNK         0.3453 
     85 H85       -72.0113   29.9886  -70.1521 H         1 UNK         0.3453 
     86 H86       -73.0944   28.7845  -74.2564 H         1 UNK         0.2984 
     87 H87       -73.0082   29.5699  -76.8546 H         1 UNK         0.0554 
     88 H88       -71.1140   30.8158  -77.8318 H         1 UNK         0.0847 
     89 H89       -71.1966   29.2114  -78.5417 H         1 UNK         0.0847 
     90 H90       -69.9774   29.5775  -77.3210 H         1 UNK         0.0847 
     91 H91       -72.8919   27.4171  -76.4490 H         1 UNK         0.3141 
     92 H92       -70.3726   25.0469  -75.9204 H         1 UNK         0.0743 
     93 H93       -70.9345   25.6298  -73.5529 H         1 UNK         0.0784 
     94 H94       -72.6291   25.8031  -73.9839 H         1 UNK         0.0784 
     95 H95       -71.8455   24.2278  -74.0930 H         1 UNK         0.0784 
     96 H96       -73.2156   24.8269  -76.1919 H         1 UNK         0.3213 
     97 H97       -73.2676   24.9280  -79.7883 H         1 UNK         0.0855 
     98 H98       -73.8705   22.7365  -77.7299 H         1 UNK         0.0814 
     99 H99       -72.7726   22.5762  -79.0941 H         1 UNK         0.0814 
    100 H100      -74.4895   22.8133  -79.3779 H         1 UNK         0.0814 
    101 H101      -75.3922   24.7172  -77.9165 H         1 UNK         0.3105 
    102 H102      -76.0081   28.2415  -77.5442 H         1 UNK         0.0547 
    103 H103      -78.2635   27.3969  -78.2064 H         1 UNK         0.0837 
    104 H104      -77.5311   25.9454  -78.8867 H         1 UNK         0.0837 
    105 H105      -77.1916   27.5163  -79.5937 H         1 UNK         0.0837 
    106 H106      -77.2796   26.0010  -76.3426 H         1 UNK         0.3020 
    107 H107      -75.2051   25.7671  -73.4473 H         1 UNK         0.1245 
    108 H108      -78.0401   26.8144  -73.9603 H         1 UNK         0.0781 
    109 H109      -76.8051   27.5869  -73.0229 H         1 UNK         0.0781 
    110 H110      -76.1098   26.5138  -70.3666 H         1 UNK         0.0836 
    111 H111      -77.6295   26.3048  -69.5292 H         1 UNK         0.0836 
    112 H112      -77.4742   24.3039  -74.4201 H         1 UNK         0.3022 
    113 H113      -75.6293   21.7591  -76.1297 H         1 UNK         0.0747 
    114 H114      -76.8742   20.3378  -74.5202 H         1 UNK         0.0793 
    115 H115      -75.5427   21.1433  -73.7081 H         1 UNK         0.0793 
    116 H116      -77.1843   21.7310  -73.4829 H         1 UNK         0.0793 
    117 H117      -78.4200   22.1041  -75.6207 H         1 UNK         0.3047 
    118 H118      -79.1789   24.2013  -78.3822 H         1 UNK         0.0822 
    119 H119      -80.6531   22.3259  -79.0503 H         1 UNK         0.0807 
    120 H120      -79.7385   21.2042  -78.0411 H         1 UNK         0.0807 
    121 H121      -78.9866   21.9454  -79.4469 H         1 UNK         0.0807 
    122 H122      -80.9114   22.8903  -76.5935 H         1 UNK         0.2946 
    123 H123      -82.0987   24.2968  -75.1481 H         1 UNK         0.1144 
    124 H124      -79.8528   23.7503  -73.1183 H         1 UNK         0.0793 
    125 H125      -80.7274   22.5233  -74.0235 H         1 UNK         0.0793 
    126 H126      -81.5729   23.4933  -72.8336 H         1 UNK         0.0793 
    127 H127      -81.0583   25.9257  -73.0711 H         1 UNK         0.2896 
@<TRIPOS>BOND
     1    1    2 1    
     2    1   67 1    
     3    1   68 1    
     4    1   69 1    
     5    2    3 2    
     6    2    4 am   BACKBONE|DICT|INTERRES
     7    4    5 1    
     8    4   70 1    
     9    5    6 1    
    10    5   65 1    
    11    5   71 1    
    12    6    7 1    
    13    6   72 1    
    14    6   73 1    
    15    7    8 1    
    16    8    9 1    
    17    8   74 1    
    18    8   75 1    
    19    9   10 ar   
    20    9   14 ar   
    21   10   11 ar   
    22   10   76 1    
    23   11   12 ar   
    24   11   48 1    
    25   12   13 ar   
    26   12   77 1    
    27   13   14 ar   
    28   13   15 1    
    29   14   78 1    
    30   15   16 1    
    31   15   79 1    
    32   15   80 1    
    33   16   17 1    
    34   17   18 1    
    35   17   81 1    
    36   17   82 1    
    37   18   19 1    
    38   18   22 1    
    39   18   83 1    
    40   19   20 am   BACKBONE|DICT|INTERRES
    41   19   21 2    
    42   20   84 1    
    43   20   85 1    
    44   22   23 am   BACKBONE|DICT|INTERRES
    45   22   86 1    
    46   23   24 2    
    47   23   25 1    
    48   25   26 1    
    49   25   27 1    
    50   25   87 1    
    51   26   88 1    
    52   26   89 1    
    53   26   90 1    
    54   27   28 am   BACKBONE|DICT|INTERRES
    55   27   91 1    
    56   28   29 2    
    57   28   30 1    
    58   30   31 1    
    59   30   32 1    
    60   30   92 1    
    61   31   93 1    
    62   31   94 1    
    63   31   95 1    
    64   32   33 am   BACKBONE|DICT|INTERRES
    65   32   96 1    
    66   33   34 2    
    67   33   35 1    
    68   35   36 1    
    69   35   37 1    
    70   35   97 1    
    71   36   98 1    
    72   36   99 1    
    73   36  100 1    
    74   37   38 am   BACKBONE|DICT|INTERRES
    75   37  101 1    
    76   38   39 2    
    77   38   40 1    
    78   40   41 1    
    79   40   42 1    
    80   40  102 1    
    81   41  103 1    
    82   41  104 1    
    83   41  105 1    
    84   42   43 am   BACKBONE|DICT|INTERRES
    85   42  106 1    
    86   43   44 2    
    87   43   45 1    
    88   45   46 1    
    89   45   49 1    
    90   45  107 1    
    91   46   47 1    
    92   46  108 1    
    93   46  109 1    
    94   47   48 1    
    95   48  110 1    
    96   48  111 1    
    97   49   50 am   BACKBONE|DICT|INTERRES
    98   49  112 1    
    99   50   51 2    
   100   50   52 1    
   101   52   53 1    
   102   52   54 1    
   103   52  113 1    
   104   53  114 1    
   105   53  115 1    
   106   53  116 1    
   107   54   55 am   BACKBONE|DICT|INTERRES
   108   54  117 1    
   109   55   56 2    
   110   55   57 1    
   111   57   58 1    
   112   57   59 1    
   113   57  118 1    
   114   58  119 1    
   115   58  120 1    
   116   58  121 1    
   117   59   60 am   BACKBONE|DICT|INTERRES
   118   59  122 1    
   119   60   61 2    
   120   60   62 1    
   121   62   63 1    
   122   62   64 1    
   123   62  123 1    
   124   63  124 1    
   125   63  125 1    
   126   63  126 1    
   127   64   65 am   BACKBONE|DICT|INTERRES
   128   64  127 1    
   129   65   66 2    
@<TRIPOS>SUBSTRUCTURE
     1 UNK         1 GROUP             0       ****    0 ROOT    
