@<TRIPOS>MOLECULE
3R135
127   129    1
SMALL
USER_CHARGES


@<TRIPOS>ATOM
      1 CA        -81.5659   31.4318  -74.8333 C.3       0 UNK        -0.1998 
      2 C         -80.5433   30.3145  -74.6976 C.2       0 UNK         0.4909 
      3 O         -79.4524   30.4102  -75.2618 O.2       0 UNK        -0.5240 
      4 N         -80.8838   29.2547  -73.9536 N.am      1 UNK        -0.4739 
      5 CA        -80.0480   28.0723  -73.7105 C.3       1 UNK         0.0864 
      6 C6        -80.4820   27.3148  -72.4272 C.3       11 UNK        -0.0881 
      7 S7        -80.5337   28.3811  -70.9457 S.3       11 UNK        -0.2682 
      8 C8        -79.3856   27.5416  -69.8100 C.3       11 UNK         0.0289 
      9 C9        -77.9307   27.8690  -70.1125 C.ar      11 UNK        -0.0687 
     10 C10       -77.0728   26.8924  -70.6275 C.ar      11 UNK        -0.0823 
     11 C11       -75.7253   27.1870  -70.8616 C.ar      11 UNK        -0.0830 
     12 C12       -75.2354   28.4605  -70.5615 C.ar      11 UNK        -0.1021 
     13 C13       -76.0876   29.4507  -70.0685 C.ar      11 UNK        -0.0753 
     14 C14       -77.4327   29.1470  -69.8399 C.ar      11 UNK        -0.0933 
     15 C15       -75.5604   30.8468  -69.7759 C.3       11 UNK         0.0166 
     16 S16       -75.8689   31.9775  -71.1690 S.3       11 UNK        -0.2615 
     17 C17       -74.4120   31.7015  -72.2398 C.3       11 UNK        -0.0865 
     18 CA        -74.5631   30.5948  -73.3230 C.3       10 UNK         0.0862 
     19 C         -75.7446   30.8261  -74.2971 C.2       10 UNK         0.5551 
     20 N         -76.9235   30.3307  -73.9506 N.am      10 UNK        -0.7319 
     21 O         -75.6038   31.4617  -75.3404 O.2       10 UNK        -0.5018 
     22 N         -73.3149   30.4196  -74.0690 N.am      10 UNK        -0.4509 
     23 C         -72.2368   29.7622  -73.6340 C.2       10 UNK         0.4899 
     24 O         -72.1708   29.2188  -72.5303 O.2       10 UNK        -0.4839 
     25 CA        -71.0264   29.7152  -74.5887 C.3       9 UNK         0.0222 
     26 CB        -69.8315   28.9481  -73.9903 C.3       9 UNK        -0.1966 
     27 N         -71.3591   29.1246  -75.8869 N.am      9 UNK        -0.4218 
     28 C         -71.9984   29.7377  -76.8927 C.2       9 UNK         0.5020 
     29 O         -72.4029   30.8995  -76.8297 O.2       9 UNK        -0.5274 
     30 CA        -72.2165   28.9353  -78.1901 C.3       8 UNK         0.0270 
     31 CB        -71.2560   29.4217  -79.2885 C.3       8 UNK        -0.1976 
     32 N         -72.0521   27.4874  -78.0173 N.am      8 UNK        -0.4313 
     33 C         -72.9588   26.6905  -77.4395 C.2       8 UNK         0.5041 
     34 O         -74.0501   27.0810  -77.0160 O.2       8 UNK        -0.5577 
     35 CA        -72.5684   25.2169  -77.2861 C.3       7 UNK         0.0284 
     36 CB        -71.6108   25.0222  -76.0945 C.3       7 UNK        -0.1958 
     37 N         -73.7901   24.4540  -77.0704 N.am      7 UNK        -0.4454 
     38 C         -73.9606   23.1438  -77.2730 C.2       7 UNK         0.5089 
     39 O         -73.0724   22.3949  -77.6842 O.2       7 UNK        -0.5125 
     40 CA        -75.3681   22.5879  -76.9749 C.3       6 UNK         0.0408 
     41 CB        -75.3791   21.0666  -76.7183 C.3       6 UNK        -0.1791 
     42 N         -76.0502   23.3138  -75.8969 N.am      6 UNK        -0.4762 
     43 C         -75.6840   23.4015  -74.6075 C.2       6 UNK         0.5007 
     44 O         -74.7197   22.8111  -74.1197 O.2       6 UNK        -0.5032 
     45 CA        -76.5695   24.2854  -73.7073 C.3       5 UNK         0.0783 
     46 C46       -76.2485   25.7953  -73.8554 C.3       11 UNK        -0.0857 
     47 S47       -74.5977   26.2671  -73.2322 S.3       11 UNK        -0.2512 
     48 C48       -74.7874   26.1306  -71.4238 C.3       11 UNK         0.0225 
     49 N         -77.9813   24.0099  -73.9788 N.am      5 UNK        -0.4615 
     50 C         -78.6753   23.0093  -73.4183 C.2       4 UNK         0.5053 
     51 O         -78.2446   22.3107  -72.5010 O.2       4 UNK        -0.5105 
     52 CA        -80.0801   22.7218  -73.9772 C.3       4 UNK         0.0263 
     53 CB        -81.1639   23.3514  -73.0878 C.3       4 UNK        -0.1981 
     54 N         -80.2335   23.1827  -75.3613 N.am      4 UNK        -0.4224 
     55 C         -79.7529   22.5109  -76.4202 C.2       3 UNK         0.4895 
     56 O         -79.2224   21.4030  -76.3363 O.2       3 UNK        -0.5091 
     57 CA        -79.8570   23.1704  -77.8089 C.3       3 UNK         0.0250 
     58 CB        -81.0486   22.5908  -78.5883 C.3       3 UNK        -0.1996 
     59 N         -79.9625   24.6321  -77.7912 N.am      3 UNK        -0.4254 
     60 C         -79.0343   25.4738  -77.3166 C.2       2 UNK         0.5004 
     61 O         -77.9765   25.1010  -76.8090 O.2       2 UNK        -0.5226 
     62 CA        -79.3487   26.9819  -77.3620 C.3       2 UNK         0.0269 
     63 CB        -80.6473   27.3339  -78.1228 C.3       2 UNK        -0.1926 
     64 N         -79.3856   27.5870  -76.0245 N.am      2 UNK        -0.4687 
     65 C         -80.0708   27.1573  -74.9547 C.2       1 UNK         0.5165 
     66 O         -80.7368   26.1196  -74.9436 O.2       1 UNK        -0.5079 
     67 H67       -81.1495   32.3669  -74.4599 H         1 UNK         0.0900 
     68 H68       -81.8316   31.5707  -75.8809 H         1 UNK         0.0900 
     69 H69       -82.4782   31.2198  -74.2760 H         1 UNK         0.0900 
     70 H70       -81.7934   29.2316  -73.5154 H         1 UNK         0.2959 
     71 H71       -79.0163   28.3974  -73.5624 H         1 UNK         0.1079 
     72 H72       -81.4789   26.8868  -72.5501 H         1 UNK         0.0837 
     73 H73       -79.8106   26.4734  -72.2465 H         1 UNK         0.0837 
     74 H74       -79.5634   26.4652  -69.8333 H         1 UNK         0.0685 
     75 H75       -79.6117   27.8615  -68.7918 H         1 UNK         0.0685 
     76 H76       -77.4515   25.9021  -70.8410 H         1 UNK         0.1434 
     77 H77       -74.1918   28.6873  -70.7359 H         1 UNK         0.1329 
     78 H78       -78.0955   29.9070  -69.4488 H         1 UNK         0.1335 
     79 H79       -74.4964   30.8194  -69.5364 H         1 UNK         0.0680 
     80 H80       -76.0583   31.2430  -68.8897 H         1 UNK         0.0680 
     81 H81       -73.5548   31.4823  -71.6021 H         1 UNK         0.1032 
     82 H82       -74.1762   32.6512  -72.7230 H         1 UNK         0.1032 
     83 H83       -74.7609   29.6446  -72.8310 H         1 UNK         0.0461 
     84 H84       -77.7322   30.4811  -74.5473 H         1 UNK         0.3453 
     85 H85       -77.0327   29.8729  -73.0599 H         1 UNK         0.3453 
     86 H86       -73.3097   30.8053  -75.0098 H         1 UNK         0.2984 
     87 H87       -70.7068   30.7471  -74.7489 H         1 UNK         0.0554 
     88 H88       -69.5191   29.3888  -73.0426 H         1 UNK         0.0847 
     89 H89       -68.9680   28.9741  -74.6552 H         1 UNK         0.0847 
     90 H90       -70.0771   27.9028  -73.7979 H         1 UNK         0.0847 
     91 H91       -71.0969   28.1599  -76.0193 H         1 UNK         0.3141 
     92 H92       -73.2387   29.1305  -78.5223 H         1 UNK         0.0743 
     93 H93       -71.3772   30.4912  -79.4674 H         1 UNK         0.0784 
     94 H94       -70.2127   29.2536  -79.0183 H         1 UNK         0.0784 
     95 H95       -71.4453   28.9148  -80.2350 H         1 UNK         0.0784 
     96 H96       -71.1860   27.0859  -78.3497 H         1 UNK         0.3213 
     97 H97       -72.0924   24.8795  -78.2094 H         1 UNK         0.0855 
     98 H98       -72.0601   25.3630  -75.1602 H         1 UNK         0.0814 
     99 H99       -70.6827   25.5768  -76.2356 H         1 UNK         0.0814 
    100 H100      -71.3407   23.9736  -75.9686 H         1 UNK         0.0814 
    101 H101      -74.5761   25.0225  -76.7757 H         1 UNK         0.3105 
    102 H102      -75.9591   22.7706  -77.8735 H         1 UNK         0.0547 
    103 H103      -76.3875   20.7075  -76.5122 H         1 UNK         0.0837 
    104 H104      -74.7449   20.7917  -75.8752 H         1 UNK         0.0837 
    105 H105      -75.0135   20.5213  -77.5890 H         1 UNK         0.0837 
    106 H106      -76.8330   23.8924  -76.2023 H         1 UNK         0.3020 
    107 H107      -76.3620   23.9938  -72.6767 H         1 UNK         0.1245 
    108 H108      -76.9961   26.3944  -73.3361 H         1 UNK         0.0781 
    109 H109      -76.3116   26.1032  -74.9008 H         1 UNK         0.0781 
    110 H110      -73.8023   26.2444  -70.9684 H         1 UNK         0.0836 
    111 H111      -75.1229   25.1306  -71.1495 H         1 UNK         0.0836 
    112 H112      -78.3893   24.5018  -74.7634 H         1 UNK         0.3022 
    113 H113      -80.2246   21.6393  -73.9538 H         1 UNK         0.0747 
    114 H114      -82.1629   23.1451  -73.4719 H         1 UNK         0.0793 
    115 H115      -81.1163   22.9478  -72.0755 H         1 UNK         0.0793 
    116 H116      -81.0511   24.4311  -73.0085 H         1 UNK         0.0793 
    117 H117      -80.6307   24.1079  -75.4920 H         1 UNK         0.3047 
    118 H118      -78.9416   22.9180  -78.3485 H         1 UNK         0.0822 
    119 H119      -81.0767   22.9678  -79.6109 H         1 UNK         0.0807 
    120 H120      -81.9992   22.8347  -78.1124 H         1 UNK         0.0807 
    121 H121      -80.9844   21.5032  -78.6489 H         1 UNK         0.0807 
    122 H122      -80.8164   25.0268  -78.1582 H         1 UNK         0.2946 
    123 H123      -78.5144   27.4438  -77.8927 H         1 UNK         0.1144 
    124 H124      -80.6252   26.9570  -79.1463 H         1 UNK         0.0793 
    125 H125      -80.7757   28.4145  -78.1888 H         1 UNK         0.0793 
    126 H126      -81.5348   26.9315  -77.6325 H         1 UNK         0.0793 
    127 H127      -78.9230   28.4855  -75.9380 H         1 UNK         0.2896 
@<TRIPOS>BOND
     1    1    2 1    
     2    1   67 1    
     3    1   68 1    
     4    1   69 1    
     5    2    3 2    
     6    2    4 am   BACKBONE|DICT|INTERRES
     7    4    5 1    
     8    4   70 1    
     9    5    6 1    
    10    5   65 1    
    11    5   71 1    
    12    6    7 1    
    13    6   72 1    
    14    6   73 1    
    15    7    8 1    
    16    8    9 1    
    17    8   74 1    
    18    8   75 1    
    19    9   10 ar   
    20    9   14 ar   
    21   10   11 ar   
    22   10   76 1    
    23   11   12 ar   
    24   11   48 1    
    25   12   13 ar   
    26   12   77 1    
    27   13   14 ar   
    28   13   15 1    
    29   14   78 1    
    30   15   16 1    
    31   15   79 1    
    32   15   80 1    
    33   16   17 1    
    34   17   18 1    
    35   17   81 1    
    36   17   82 1    
    37   18   19 1    
    38   18   22 1    
    39   18   83 1    
    40   19   20 am   BACKBONE|DICT|INTERRES
    41   19   21 2    
    42   20   84 1    
    43   20   85 1    
    44   22   23 am   BACKBONE|DICT|INTERRES
    45   22   86 1    
    46   23   24 2    
    47   23   25 1    
    48   25   26 1    
    49   25   27 1    
    50   25   87 1    
    51   26   88 1    
    52   26   89 1    
    53   26   90 1    
    54   27   28 am   BACKBONE|DICT|INTERRES
    55   27   91 1    
    56   28   29 2    
    57   28   30 1    
    58   30   31 1    
    59   30   32 1    
    60   30   92 1    
    61   31   93 1    
    62   31   94 1    
    63   31   95 1    
    64   32   33 am   BACKBONE|DICT|INTERRES
    65   32   96 1    
    66   33   34 2    
    67   33   35 1    
    68   35   36 1    
    69   35   37 1    
    70   35   97 1    
    71   36   98 1    
    72   36   99 1    
    73   36  100 1    
    74   37   38 am   BACKBONE|DICT|INTERRES
    75   37  101 1    
    76   38   39 2    
    77   38   40 1    
    78   40   41 1    
    79   40   42 1    
    80   40  102 1    
    81   41  103 1    
    82   41  104 1    
    83   41  105 1    
    84   42   43 am   BACKBONE|DICT|INTERRES
    85   42  106 1    
    86   43   44 2    
    87   43   45 1    
    88   45   46 1    
    89   45   49 1    
    90   45  107 1    
    91   46   47 1    
    92   46  108 1    
    93   46  109 1    
    94   47   48 1    
    95   48  110 1    
    96   48  111 1    
    97   49   50 am   BACKBONE|DICT|INTERRES
    98   49  112 1    
    99   50   51 2    
   100   50   52 1    
   101   52   53 1    
   102   52   54 1    
   103   52  113 1    
   104   53  114 1    
   105   53  115 1    
   106   53  116 1    
   107   54   55 am   BACKBONE|DICT|INTERRES
   108   54  117 1    
   109   55   56 2    
   110   55   57 1    
   111   57   58 1    
   112   57   59 1    
   113   57  118 1    
   114   58  119 1    
   115   58  120 1    
   116   58  121 1    
   117   59   60 am   BACKBONE|DICT|INTERRES
   118   59  122 1    
   119   60   61 2    
   120   60   62 1    
   121   62   63 1    
   122   62   64 1    
   123   62  123 1    
   124   63  124 1    
   125   63  125 1    
   126   63  126 1    
   127   64   65 am   BACKBONE|DICT|INTERRES
   128   64  127 1    
   129   65   66 2    
@<TRIPOS>SUBSTRUCTURE
     1 UNK         1 GROUP             0       ****    0 ROOT    
