@<TRIPOS>MOLECULE
3R135
127   129    1
SMALL
USER_CHARGES


@<TRIPOS>ATOM
      1 CA        -79.9519   32.0814  -77.1085 C.3       0 UNK        -0.1998 
      2 C         -79.1908   30.8732  -76.5837 C.2       0 UNK         0.4909 
      3 O         -77.9998   30.7306  -76.8616 O.2       0 UNK        -0.5240 
      4 N         -79.8687   30.0012  -75.8324 N.am      1 UNK        -0.4739 
      5 CA        -79.3133   28.7835  -75.2451 C.3       1 UNK         0.0864 
      6 C6        -78.4540   29.0507  -73.9797 C.3       11 UNK        -0.0881 
      7 S7        -79.3121   29.9956  -72.6676 S.3       11 UNK        -0.2682 
      8 C8        -79.5854   28.7216  -71.3885 C.3       11 UNK         0.0289 
      9 C9        -78.2891   28.1261  -70.8480 C.ar      11 UNK        -0.0687 
     10 C10       -78.1550   26.7392  -70.7229 C.ar      11 UNK        -0.0823 
     11 C11       -76.9617   26.1813  -70.2525 C.ar      11 UNK        -0.0830 
     12 C12       -75.8946   27.0190  -69.9179 C.ar      11 UNK        -0.1021 
     13 C13       -76.0174   28.4054  -70.0344 C.ar      11 UNK        -0.0753 
     14 C14       -77.2239   28.9535  -70.4756 C.ar      11 UNK        -0.0933 
     15 C15       -74.8393   29.3051  -69.6990 C.3       11 UNK         0.0166 
     16 S16       -73.8617   29.6839  -71.1865 S.3       11 UNK        -0.2615 
     17 C17       -74.7989   31.0926  -71.8818 C.3       11 UNK        -0.0865 
     18 CA        -74.0519   31.8444  -73.0135 C.3       10 UNK         0.0862 
     19 C         -72.7466   32.5307  -72.5063 C.2       10 UNK         0.5551 
     20 N         -71.5609   32.0870  -72.9113 N.am      10 UNK        -0.7319 
     21 O         -72.8174   33.4892  -71.7408 O.2       10 UNK        -0.5018 
     22 N         -73.8779   30.9892  -74.1952 N.am      10 UNK        -0.4509 
     23 C         -73.5584   31.4326  -75.4179 C.2       10 UNK         0.4899 
     24 O         -73.5321   32.6271  -75.7189 O.2       10 UNK        -0.4839 
     25 CA        -73.2062   30.3766  -76.4871 C.3       9 UNK         0.0222 
     26 CB        -72.0843   30.8612  -77.4292 C.3       9 UNK        -0.1966 
     27 N         -72.8839   29.0409  -75.9633 N.am      9 UNK        -0.4218 
     28 C         -71.9077   28.7025  -75.1028 C.2       9 UNK         0.5020 
     29 O         -71.1520   29.5191  -74.5726 O.2       9 UNK        -0.5274 
     30 CA        -71.7626   27.2101  -74.7419 C.3       8 UNK         0.0270 
     31 CB        -72.3247   26.9460  -73.3350 C.3       8 UNK        -0.1976 
     32 N         -72.4194   26.3127  -75.6979 N.am      8 UNK        -0.4313 
     33 C         -71.9608   26.0530  -76.9332 C.2       8 UNK         0.5041 
     34 O         -70.8758   26.4575  -77.3525 O.2       8 UNK        -0.5577 
     35 CA        -72.8641   25.2326  -77.8788 C.3       7 UNK         0.0284 
     36 CB        -72.4156   23.7624  -77.9066 C.3       7 UNK        -0.1958 
     37 N         -74.2919   25.2916  -77.5490 N.am      7 UNK        -0.4454 
     38 C         -75.0330   26.4069  -77.4895 C.2       7 UNK         0.5089 
     39 O         -74.6147   27.5193  -77.8074 O.2       7 UNK        -0.5125 
     40 CA        -76.4548   26.2839  -76.9106 C.3       6 UNK         0.0408 
     41 CB        -77.4943   26.3100  -78.0426 C.3       6 UNK        -0.1791 
     42 N         -76.6954   25.1117  -76.0550 N.am      6 UNK        -0.4762 
     43 C         -75.9958   24.7704  -74.9597 C.2       6 UNK         0.5007 
     44 O         -74.9954   25.3858  -74.5898 O.2       6 UNK        -0.5032 
     45 CA        -76.4519   23.5355  -74.1556 C.3       5 UNK         0.0783 
     46 C46       -77.0723   23.9345  -72.7905 C.3       11 UNK        -0.0857 
     47 S47       -75.8399   23.9523  -71.4504 S.3       11 UNK        -0.2512 
     48 C48       -76.8156   24.6753  -70.0967 C.3       11 UNK         0.0225 
     49 N         -77.3532   22.6506  -74.9092 N.am      5 UNK        -0.4615 
     50 C         -77.2311   21.3144  -74.9406 C.2       4 UNK         0.5053 
     51 O         -76.2814   20.7139  -74.4357 O.2       4 UNK        -0.5105 
     52 CA        -78.3438   20.4874  -75.6156 C.3       4 UNK         0.0263 
     53 CB        -78.7644   19.2948  -74.7359 C.3       4 UNK        -0.1981 
     54 N         -79.5362   21.2834  -75.9157 N.am      4 UNK        -0.4224 
     55 C         -80.0114   21.5281  -77.1434 C.2       3 UNK         0.4895 
     56 O         -79.5144   21.0761  -78.1758 O.2       3 UNK        -0.5091 
     57 CA        -81.2505   22.4408  -77.2531 C.3       3 UNK         0.0250 
     58 CB        -82.5238   21.5896  -77.3903 C.3       3 UNK        -0.1996 
     59 N         -81.4427   23.4190  -76.1700 N.am      3 UNK        -0.4254 
     60 C         -80.5367   24.3156  -75.7592 C.2       2 UNK         0.5004 
     61 O         -79.3592   24.3142  -76.1272 O.2       2 UNK        -0.5226 
     62 CA        -80.9999   25.3665  -74.7440 C.3       2 UNK         0.0269 
     63 CB        -80.9676   24.7992  -73.3151 C.3       2 UNK        -0.1926 
     64 N         -80.0881   26.5064  -74.8300 N.am      2 UNK        -0.4687 
     65 C         -80.4537   27.7807  -74.9989 C.2       1 UNK         0.5165 
     66 O         -81.6252   28.1705  -74.9793 O.2       1 UNK        -0.5079 
     67 H67       -79.4873   33.0003  -76.7520 H         1 UNK         0.0900 
     68 H68       -80.9923   32.0796  -76.7839 H         1 UNK         0.0900 
     69 H69       -79.9358   32.0911  -78.1980 H         1 UNK         0.0900 
     70 H70       -80.8573   30.1247  -75.6497 H         1 UNK         0.2959 
     71 H71       -78.6709   28.3283  -76.0009 H         1 UNK         0.1079 
     72 H72       -77.5703   29.6247  -74.2628 H         1 UNK         0.0837 
     73 H73       -78.0625   28.1150  -73.5773 H         1 UNK         0.0837 
     74 H74       -80.1374   29.1678  -70.5605 H         1 UNK         0.0685 
     75 H75       -80.2265   27.9432  -71.8054 H         1 UNK         0.0685 
     76 H76       -78.9783   26.0925  -70.9940 H         1 UNK         0.1434 
     77 H77       -74.9633   26.5886  -69.5751 H         1 UNK         0.1329 
     78 H78       -77.3244   30.0265  -70.5590 H         1 UNK         0.1335 
     79 H79       -74.1911   28.8132  -68.9722 H         1 UNK         0.0680 
     80 H80       -75.1818   30.2259  -69.2246 H         1 UNK         0.0680 
     81 H81       -75.0479   31.7874  -71.0775 H         1 UNK         0.1032 
     82 H82       -75.7527   30.7229  -72.2608 H         1 UNK         0.1032 
     83 H83       -74.7065   32.6618  -73.3225 H         1 UNK         0.0461 
     84 H84       -71.4940   31.2768  -73.5176 H         1 UNK         0.3453 
     85 H85       -70.7236   32.5392  -72.5813 H         1 UNK         0.3453 
     86 H86       -73.8496   29.9964  -74.0189 H         1 UNK         0.2984 
     87 H87       -74.1085   30.2500  -77.0871 H         1 UNK         0.0554 
     88 H88       -71.8642   30.1192  -78.1969 H         1 UNK         0.0847 
     89 H89       -71.1614   31.0653  -76.8853 H         1 UNK         0.0847 
     90 H90       -72.3691   31.7800  -77.9433 H         1 UNK         0.0847 
     91 H91       -73.4429   28.2945  -76.3648 H         1 UNK         0.3141 
     92 H92       -70.6953   26.9791  -74.7312 H         1 UNK         0.0743 
     93 H93       -73.3886   27.1796  -73.2727 H         1 UNK         0.0784 
     94 H94       -72.1951   25.9037  -73.0429 H         1 UNK         0.0784 
     95 H95       -71.8150   27.5575  -72.5890 H         1 UNK         0.0784 
     96 H96       -73.3181   25.9296  -75.4121 H         1 UNK         0.3213 
     97 H97       -72.7429   25.6491  -78.8810 H         1 UNK         0.0855 
     98 H98       -72.5392   23.2841  -76.9341 H         1 UNK         0.0814 
     99 H99       -71.3619   23.6813  -78.1776 H         1 UNK         0.0814 
    100 H100      -72.9809   23.1872  -78.6402 H         1 UNK         0.0814 
    101 H101      -74.7286   24.4286  -77.2601 H         1 UNK         0.3105 
    102 H102      -76.6083   27.1660  -76.2868 H         1 UNK         0.0547 
    103 H103      -77.4288   25.4193  -78.6685 H         1 UNK         0.0837 
    104 H104      -78.5106   26.3707  -77.6548 H         1 UNK         0.0837 
    105 H105      -77.3479   27.1760  -78.6900 H         1 UNK         0.0837 
    106 H106      -77.5417   24.5904  -76.2679 H         1 UNK         0.3020 
    107 H107      -75.5234   22.9913  -73.9671 H         1 UNK         0.1245 
    108 H108      -77.5757   24.9013  -72.8450 H         1 UNK         0.0781 
    109 H109      -77.8390   23.2172  -72.4930 H         1 UNK         0.0781 
    110 H110      -77.7914   24.1898  -70.0436 H         1 UNK         0.0836 
    111 H111      -76.3178   24.4579  -69.1505 H         1 UNK         0.0836 
    112 H112      -78.1403   23.0902  -75.3773 H         1 UNK         0.3022 
    113 H113      -77.9097   20.0891  -76.5348 H         1 UNK         0.0747 
    114 H114      -79.5351   18.6970  -75.2230 H         1 UNK         0.0793 
    115 H115      -77.9217   18.6305  -74.5396 H         1 UNK         0.0793 
    116 H116      -79.1541   19.6229  -73.7714 H         1 UNK         0.0793 
    117 H117      -80.0147   21.6966  -75.1280 H         1 UNK         0.3047 
    118 H118      -81.1287   23.0155  -78.1737 H         1 UNK         0.0822 
    119 H119      -83.3949   22.2074  -77.6094 H         1 UNK         0.0807 
    120 H120      -82.7309   21.0250  -76.4802 H         1 UNK         0.0807 
    121 H121      -82.4291   20.8701  -78.2052 H         1 UNK         0.0807 
    122 H122      -82.3753   23.4706  -75.7849 H         1 UNK         0.2946 
    123 H123      -82.0196   25.6666  -74.9974 H         1 UNK         0.1144 
    124 H124      -81.2626   25.5538  -72.5857 H         1 UNK         0.0793 
    125 H125      -79.9758   24.4412  -73.0417 H         1 UNK         0.0793 
    126 H126      -81.6580   23.9615  -73.2085 H         1 UNK         0.0793 
    127 H127      -79.1165   26.2520  -74.9420 H         1 UNK         0.2896 
@<TRIPOS>BOND
     1    1    2 1    
     2    1   67 1    
     3    1   68 1    
     4    1   69 1    
     5    2    3 2    
     6    2    4 am   BACKBONE|DICT|INTERRES
     7    4    5 1    
     8    4   70 1    
     9    5    6 1    
    10    5   65 1    
    11    5   71 1    
    12    6    7 1    
    13    6   72 1    
    14    6   73 1    
    15    7    8 1    
    16    8    9 1    
    17    8   74 1    
    18    8   75 1    
    19    9   10 ar   
    20    9   14 ar   
    21   10   11 ar   
    22   10   76 1    
    23   11   12 ar   
    24   11   48 1    
    25   12   13 ar   
    26   12   77 1    
    27   13   14 ar   
    28   13   15 1    
    29   14   78 1    
    30   15   16 1    
    31   15   79 1    
    32   15   80 1    
    33   16   17 1    
    34   17   18 1    
    35   17   81 1    
    36   17   82 1    
    37   18   19 1    
    38   18   22 1    
    39   18   83 1    
    40   19   20 am   BACKBONE|DICT|INTERRES
    41   19   21 2    
    42   20   84 1    
    43   20   85 1    
    44   22   23 am   BACKBONE|DICT|INTERRES
    45   22   86 1    
    46   23   24 2    
    47   23   25 1    
    48   25   26 1    
    49   25   27 1    
    50   25   87 1    
    51   26   88 1    
    52   26   89 1    
    53   26   90 1    
    54   27   28 am   BACKBONE|DICT|INTERRES
    55   27   91 1    
    56   28   29 2    
    57   28   30 1    
    58   30   31 1    
    59   30   32 1    
    60   30   92 1    
    61   31   93 1    
    62   31   94 1    
    63   31   95 1    
    64   32   33 am   BACKBONE|DICT|INTERRES
    65   32   96 1    
    66   33   34 2    
    67   33   35 1    
    68   35   36 1    
    69   35   37 1    
    70   35   97 1    
    71   36   98 1    
    72   36   99 1    
    73   36  100 1    
    74   37   38 am   BACKBONE|DICT|INTERRES
    75   37  101 1    
    76   38   39 2    
    77   38   40 1    
    78   40   41 1    
    79   40   42 1    
    80   40  102 1    
    81   41  103 1    
    82   41  104 1    
    83   41  105 1    
    84   42   43 am   BACKBONE|DICT|INTERRES
    85   42  106 1    
    86   43   44 2    
    87   43   45 1    
    88   45   46 1    
    89   45   49 1    
    90   45  107 1    
    91   46   47 1    
    92   46  108 1    
    93   46  109 1    
    94   47   48 1    
    95   48  110 1    
    96   48  111 1    
    97   49   50 am   BACKBONE|DICT|INTERRES
    98   49  112 1    
    99   50   51 2    
   100   50   52 1    
   101   52   53 1    
   102   52   54 1    
   103   52  113 1    
   104   53  114 1    
   105   53  115 1    
   106   53  116 1    
   107   54   55 am   BACKBONE|DICT|INTERRES
   108   54  117 1    
   109   55   56 2    
   110   55   57 1    
   111   57   58 1    
   112   57   59 1    
   113   57  118 1    
   114   58  119 1    
   115   58  120 1    
   116   58  121 1    
   117   59   60 am   BACKBONE|DICT|INTERRES
   118   59  122 1    
   119   60   61 2    
   120   60   62 1    
   121   62   63 1    
   122   62   64 1    
   123   62  123 1    
   124   63  124 1    
   125   63  125 1    
   126   63  126 1    
   127   64   65 am   BACKBONE|DICT|INTERRES
   128   64  127 1    
   129   65   66 2    
@<TRIPOS>SUBSTRUCTURE
     1 UNK         1 GROUP             0       ****    0 ROOT    
