@<TRIPOS>MOLECULE
3R135
127   129    1
SMALL
USER_CHARGES


@<TRIPOS>ATOM
      1 CA        -85.5697   28.0197  -71.4486 C.3       0 UNK        -0.1998 
      2 C         -84.7207   28.2938  -72.6809 C.2       0 UNK         0.4909 
      3 O         -85.2430   28.2897  -73.7959 O.2       0 UNK        -0.5240 
      4 N         -83.4172   28.5373  -72.4866 N.am      1 UNK        -0.4739 
      5 CA        -82.4369   28.7824  -73.5525 C.3       1 UNK         0.0864 
      6 C6        -81.1278   29.3675  -72.9646 C.3       11 UNK        -0.0881 
      7 S7        -80.0526   30.2028  -74.1828 S.3       11 UNK        -0.2682 
      8 C8        -78.9115   28.8826  -74.7118 C.3       11 UNK         0.0289 
      9 C9        -77.9620   28.4304  -73.6112 C.ar      11 UNK        -0.0687 
     10 C10       -78.3149   27.3658  -72.7793 C.ar      11 UNK        -0.0823 
     11 C11       -77.4466   26.9182  -71.7830 C.ar      11 UNK        -0.0830 
     12 C12       -76.1935   27.5190  -71.6436 C.ar      11 UNK        -0.1021 
     13 C13       -75.8109   28.5630  -72.4915 C.ar      11 UNK        -0.0753 
     14 C14       -76.7070   29.0290  -73.4606 C.ar      11 UNK        -0.0933 
     15 C15       -74.4047   29.1335  -72.4013 C.3       11 UNK         0.0166 
     16 S16       -74.3884   30.9079  -71.9965 S.3       11 UNK        -0.2615 
     17 C17       -72.5974   31.1787  -71.7575 C.3       11 UNK        -0.0865 
     18 CA        -71.8707   31.7261  -73.0152 C.3       10 UNK         0.0862 
     19 C         -70.3780   32.0258  -72.6837 C.2       10 UNK         0.5551 
     20 N         -69.4155   31.2580  -73.1841 N.am      10 UNK        -0.7319 
     21 O         -70.0924   32.9740  -71.9567 O.2       10 UNK        -0.5018 
     22 N         -72.0598   30.8476  -74.1791 N.am      10 UNK        -0.4509 
     23 C         -71.7833   31.1700  -75.4480 C.2       10 UNK         0.4899 
     24 O         -71.4640   32.3045  -75.8066 O.2       10 UNK        -0.4839 
     25 CA        -71.8770   30.0369  -76.4933 C.3       9 UNK         0.0222 
     26 CB        -70.8265   30.1951  -77.6123 C.3       9 UNK        -0.1966 
     27 N         -71.8259   28.6724  -75.9424 N.am      9 UNK        -0.4218 
     28 C         -70.8464   28.1202  -75.2037 C.2       9 UNK         0.5020 
     29 O         -69.8565   28.7411  -74.8119 O.2       9 UNK        -0.5274 
     30 CA        -70.9997   26.6405  -74.7961 C.3       8 UNK         0.0270 
     31 CB        -71.4172   26.5332  -73.3201 C.3       8 UNK        -0.1976 
     32 N         -71.9565   25.8978  -75.6219 N.am      8 UNK        -0.4313 
     33 C         -71.7477   25.5573  -76.9041 C.2       8 UNK         0.5041 
     34 O         -70.6763   25.7327  -77.4855 O.2       8 UNK        -0.5577 
     35 CA        -72.9271   24.9469  -77.6905 C.3       7 UNK         0.0284 
     36 CB        -72.7651   23.4223  -77.8027 C.3       7 UNK        -0.1958 
     37 N         -74.2505   25.2416  -77.1333 N.am      7 UNK        -0.4454 
     38 C         -74.7619   26.4611  -76.9112 C.2       7 UNK         0.5089 
     39 O         -74.1945   27.5085  -77.2221 O.2       7 UNK        -0.5125 
     40 CA        -76.0986   26.5295  -76.1526 C.3       6 UNK         0.0408 
     41 CB        -77.2485   26.7461  -77.1461 C.3       6 UNK        -0.1791 
     42 N         -76.3808   25.3626  -75.3022 N.am      6 UNK        -0.4762 
     43 C         -75.5883   24.9041  -74.3168 C.2       6 UNK         0.5007 
     44 O         -74.5182   25.4339  -74.0110 O.2       6 UNK        -0.5032 
     45 CA        -75.9874   23.5879  -73.6182 C.3       5 UNK         0.0783 
     46 C46       -76.3319   23.7612  -72.1152 C.3       11 UNK        -0.0857 
     47 S47       -78.0659   24.2177  -71.7682 S.3       11 UNK        -0.2512 
     48 C48       -77.8716   25.7840  -70.8650 C.3       11 UNK         0.0225 
     49 N         -77.0205   22.8514  -74.3539 N.am      5 UNK        -0.4615 
     50 C         -76.7761   21.9736  -75.3335 C.2       4 UNK         0.5053 
     51 O         -75.6475   21.6875  -75.7334 O.2       4 UNK        -0.5105 
     52 CA        -78.0039   21.3148  -75.9829 C.3       4 UNK         0.0263 
     53 CB        -78.6133   20.2546  -75.0506 C.3       4 UNK        -0.1981 
     54 N         -79.0333   22.2848  -76.3654 N.am      4 UNK        -0.4224 
     55 C         -78.8803   23.2179  -77.3159 C.2       3 UNK         0.4895 
     56 O         -77.8511   23.3548  -77.9771 O.2       3 UNK        -0.5091 
     57 CA        -80.0712   24.1526  -77.5961 C.3       3 UNK         0.0250 
     58 CB        -80.8309   23.6838  -78.8479 C.3       3 UNK        -0.1996 
     59 N         -81.0209   24.2995  -76.4878 N.am      3 UNK        -0.4254 
     60 C         -80.7496   24.8812  -75.3115 C.2       2 UNK         0.5004 
     61 O         -79.6263   25.2573  -74.9749 O.2       2 UNK        -0.5226 
     62 CA        -81.9329   25.0263  -74.3366 C.3       2 UNK         0.0269 
     63 CB        -81.8343   23.9774  -73.2175 C.3       2 UNK        -0.1926 
     64 N         -82.0455   26.3599  -73.7344 N.am      2 UNK        -0.4687 
     65 C         -82.2027   27.5132  -74.4051 C.2       1 UNK         0.5165 
     66 O         -82.2289   27.5940  -75.6342 O.2       1 UNK        -0.5079 
     67 H67       -84.9838   28.0632  -70.5307 H         1 UNK         0.0900 
     68 H68       -86.0202   27.0299  -71.5164 H         1 UNK         0.0900 
     69 H69       -86.3709   28.7546  -71.3741 H         1 UNK         0.0900 
     70 H70       -83.0541   28.5376  -71.5438 H         1 UNK         0.2959 
     71 H71       -82.8704   29.5350  -74.2157 H         1 UNK         0.1079 
     72 H72       -81.3843   30.1380  -72.2356 H         1 UNK         0.0837 
     73 H73       -80.5802   28.6226  -72.3924 H         1 UNK         0.0837 
     74 H74       -79.4824   28.0331  -75.0849 H         1 UNK         0.0685 
     75 H75       -78.3341   29.2475  -75.5624 H         1 UNK         0.0685 
     76 H76       -79.2649   26.8682  -72.9142 H         1 UNK         0.1434 
     77 H77       -75.5062   27.1564  -70.8916 H         1 UNK         0.1329 
     78 H78       -76.4124   29.8344  -74.1193 H         1 UNK         0.1335 
     79 H79       -73.9093   28.9709  -73.3583 H         1 UNK         0.0680 
     80 H80       -73.8230   28.5915  -71.6538 H         1 UNK         0.0680 
     81 H81       -72.4902   31.8843  -70.9310 H         1 UNK         0.1032 
     82 H82       -72.1280   30.2545  -71.4148 H         1 UNK         0.1032 
     83 H83       -72.3264   32.6864  -73.2645 H         1 UNK         0.0461 
     84 H84       -68.4549   31.4652  -72.9624 H         1 UNK         0.3453 
     85 H85       -69.6359   30.4642  -73.7766 H         1 UNK         0.3453 
     86 H86       -72.3012   29.8909  -73.9790 H         1 UNK         0.2984 
     87 H87       -72.8625   30.1346  -76.9506 H         1 UNK         0.0554 
     88 H88       -70.9203   29.4056  -78.3581 H         1 UNK         0.0847 
     89 H89       -69.8102   30.1645  -77.2179 H         1 UNK         0.0847 
     90 H90       -70.9447   31.1455  -78.1342 H         1 UNK         0.0847 
     91 H91       -72.6051   28.0823  -76.2225 H         1 UNK         0.3141 
     92 H92       -70.0195   26.1721  -74.9070 H         1 UNK         0.0743 
     93 H93       -70.7119   27.0567  -72.6728 H         1 UNK         0.0784 
     94 H94       -72.4032   26.9639  -73.1461 H         1 UNK         0.0784 
     95 H95       -71.4467   25.4940  -72.9919 H         1 UNK         0.0784 
     96 H96       -72.8613   25.7033  -75.2022 H         1 UNK         0.3213 
     97 H97       -72.8960   25.3728  -78.6955 H         1 UNK         0.0855 
     98 H98       -73.5338   22.9863  -78.4412 H         1 UNK         0.0814 
     99 H99       -72.8253   22.9375  -76.8272 H         1 UNK         0.0814 
    100 H100      -71.7991   23.1620  -78.2379 H         1 UNK         0.0814 
    101 H101      -74.8041   24.4484  -76.8410 H         1 UNK         0.3105 
    102 H102      -76.0440   27.3968  -75.4968 H         1 UNK         0.0547 
    103 H103      -77.2895   25.9529  -77.8922 H         1 UNK         0.0837 
    104 H104      -78.2128   26.7867  -76.6435 H         1 UNK         0.0837 
    105 H105      -77.1237   27.6872  -77.6832 H         1 UNK         0.0837 
    106 H106      -77.2648   24.8952  -75.4551 H         1 UNK         0.3020 
    107 H107      -75.0730   22.9897  -73.6415 H         1 UNK         0.1245 
    108 H108      -75.6505   24.4672  -71.6366 H         1 UNK         0.0781 
    109 H109      -76.1575   22.8119  -71.6068 H         1 UNK         0.0781 
    110 H110      -78.8254   26.0422  -70.4030 H         1 UNK         0.0836 
    111 H111      -77.1632   25.6491  -70.0461 H         1 UNK         0.0836 
    112 H112      -77.9746   23.0531  -74.0883 H         1 UNK         0.3022 
    113 H113      -77.6656   20.8116  -76.8915 H         1 UNK         0.0747 
    114 H114      -77.8649   19.5164  -74.7587 H         1 UNK         0.0793 
    115 H115      -79.4234   19.7145  -75.5410 H         1 UNK         0.0793 
    116 H116      -79.0100   20.6955  -74.1351 H         1 UNK         0.0793 
    117 H117      -79.9159   22.2388  -75.8782 H         1 UNK         0.3047 
    118 H118      -79.6607   25.1419  -77.8049 H         1 UNK         0.0822 
    119 H119      -80.1591   23.5963  -79.7033 H         1 UNK         0.0807 
    120 H120      -81.6132   24.3902  -79.1265 H         1 UNK         0.0807 
    121 H121      -81.2951   22.7082  -78.6977 H         1 UNK         0.0807 
    122 H122      -81.9677   24.0002  -76.6731 H         1 UNK         0.2946 
    123 H123      -82.8586   24.8503  -74.8887 H         1 UNK         0.1144 
    124 H124      -82.7139   23.9983  -72.5737 H         1 UNK         0.0793 
    125 H125      -80.9567   24.1405  -72.5914 H         1 UNK         0.0793 
    126 H126      -81.7592   22.9693  -73.6273 H         1 UNK         0.0793 
    127 H127      -82.0509   26.3947  -72.7260 H         1 UNK         0.2896 
@<TRIPOS>BOND
     1    1    2 1    
     2    1   67 1    
     3    1   68 1    
     4    1   69 1    
     5    2    3 2    
     6    2    4 am   BACKBONE|DICT|INTERRES
     7    4    5 1    
     8    4   70 1    
     9    5    6 1    
    10    5   65 1    
    11    5   71 1    
    12    6    7 1    
    13    6   72 1    
    14    6   73 1    
    15    7    8 1    
    16    8    9 1    
    17    8   74 1    
    18    8   75 1    
    19    9   10 ar   
    20    9   14 ar   
    21   10   11 ar   
    22   10   76 1    
    23   11   12 ar   
    24   11   48 1    
    25   12   13 ar   
    26   12   77 1    
    27   13   14 ar   
    28   13   15 1    
    29   14   78 1    
    30   15   16 1    
    31   15   79 1    
    32   15   80 1    
    33   16   17 1    
    34   17   18 1    
    35   17   81 1    
    36   17   82 1    
    37   18   19 1    
    38   18   22 1    
    39   18   83 1    
    40   19   20 am   BACKBONE|DICT|INTERRES
    41   19   21 2    
    42   20   84 1    
    43   20   85 1    
    44   22   23 am   BACKBONE|DICT|INTERRES
    45   22   86 1    
    46   23   24 2    
    47   23   25 1    
    48   25   26 1    
    49   25   27 1    
    50   25   87 1    
    51   26   88 1    
    52   26   89 1    
    53   26   90 1    
    54   27   28 am   BACKBONE|DICT|INTERRES
    55   27   91 1    
    56   28   29 2    
    57   28   30 1    
    58   30   31 1    
    59   30   32 1    
    60   30   92 1    
    61   31   93 1    
    62   31   94 1    
    63   31   95 1    
    64   32   33 am   BACKBONE|DICT|INTERRES
    65   32   96 1    
    66   33   34 2    
    67   33   35 1    
    68   35   36 1    
    69   35   37 1    
    70   35   97 1    
    71   36   98 1    
    72   36   99 1    
    73   36  100 1    
    74   37   38 am   BACKBONE|DICT|INTERRES
    75   37  101 1    
    76   38   39 2    
    77   38   40 1    
    78   40   41 1    
    79   40   42 1    
    80   40  102 1    
    81   41  103 1    
    82   41  104 1    
    83   41  105 1    
    84   42   43 am   BACKBONE|DICT|INTERRES
    85   42  106 1    
    86   43   44 2    
    87   43   45 1    
    88   45   46 1    
    89   45   49 1    
    90   45  107 1    
    91   46   47 1    
    92   46  108 1    
    93   46  109 1    
    94   47   48 1    
    95   48  110 1    
    96   48  111 1    
    97   49   50 am   BACKBONE|DICT|INTERRES
    98   49  112 1    
    99   50   51 2    
   100   50   52 1    
   101   52   53 1    
   102   52   54 1    
   103   52  113 1    
   104   53  114 1    
   105   53  115 1    
   106   53  116 1    
   107   54   55 am   BACKBONE|DICT|INTERRES
   108   54  117 1    
   109   55   56 2    
   110   55   57 1    
   111   57   58 1    
   112   57   59 1    
   113   57  118 1    
   114   58  119 1    
   115   58  120 1    
   116   58  121 1    
   117   59   60 am   BACKBONE|DICT|INTERRES
   118   59  122 1    
   119   60   61 2    
   120   60   62 1    
   121   62   63 1    
   122   62   64 1    
   123   62  123 1    
   124   63  124 1    
   125   63  125 1    
   126   63  126 1    
   127   64   65 am   BACKBONE|DICT|INTERRES
   128   64  127 1    
   129   65   66 2    
@<TRIPOS>SUBSTRUCTURE
     1 UNK         1 GROUP             0       ****    0 ROOT    
