@<TRIPOS>MOLECULE
3R135
127   129    1
SMALL
USER_CHARGES


@<TRIPOS>ATOM
      1 CA        -81.1993   30.9547  -76.6801 C.3       0 UNK        -0.1998 
      2 C         -81.7085   29.9894  -75.6191 C.2       0 UNK         0.4909 
      3 O         -82.9158   29.7576  -75.5458 O.2       0 UNK        -0.5240 
      4 N         -80.7887   29.4473  -74.8070 N.am      1 UNK        -0.4739 
      5 CA        -80.9836   28.4552  -73.7357 C.3       1 UNK         0.0864 
      6 C6        -82.0549   28.8400  -72.6773 C.3       11 UNK        -0.0881 
      7 S7        -81.7343   30.4607  -71.8985 S.3       11 UNK        -0.2682 
      8 C8        -81.0951   29.9803  -70.2635 C.3       11 UNK         0.0289 
      9 C9        -79.6958   29.3877  -70.3476 C.ar      11 UNK        -0.0687 
     10 C10       -79.5042   28.0049  -70.2544 C.ar      11 UNK        -0.0823 
     11 C11       -78.2180   27.4562  -70.3058 C.ar      11 UNK        -0.0830 
     12 C12       -77.1189   28.3169  -70.4099 C.ar      11 UNK        -0.1021 
     13 C13       -77.2994   29.6936  -70.5534 C.ar      11 UNK        -0.0753 
     14 C14       -78.5896   30.2272  -70.5112 C.ar      11 UNK        -0.0933 
     15 C15       -76.0923   30.5865  -70.7811 C.3       11 UNK         0.0166 
     16 S16       -75.6349   30.6075  -72.5455 S.3       11 UNK        -0.2615 
     17 C17       -73.8666   31.0600  -72.4426 C.3       11 UNK        -0.0865 
     18 CA        -72.8970   29.8952  -72.7872 C.3       10 UNK         0.0862 
     19 C         -72.9945   28.6948  -71.8040 C.2       10 UNK         0.5551 
     20 N         -73.2179   27.4705  -72.2654 N.am      10 UNK        -0.7319 
     21 O         -72.8348   28.8751  -70.5995 O.2       10 UNK        -0.5018 
     22 N         -72.9498   29.5161  -74.2089 N.am      10 UNK        -0.4509 
     23 C         -72.2211   30.0863  -75.1751 C.2       10 UNK         0.4899 
     24 O         -71.4769   31.0523  -74.9940 O.2       10 UNK        -0.4839 
     25 CA        -72.3374   29.4525  -76.5743 C.3       9 UNK         0.0222 
     26 CB        -71.3883   30.0858  -77.6134 C.3       9 UNK        -0.1966 
     27 N         -72.1765   27.9948  -76.5401 N.am      9 UNK        -0.4218 
     28 C         -71.1170   27.2833  -76.1236 C.2       9 UNK         0.5020 
     29 O         -70.0582   27.7830  -75.7407 O.2       9 UNK        -0.5274 
     30 CA        -71.2553   25.7464  -76.1162 C.3       8 UNK         0.0270 
     31 CB        -71.3818   25.2224  -74.6763 C.3       8 UNK        -0.1976 
     32 N         -72.3887   25.2498  -76.9031 N.am      8 UNK        -0.4313 
     33 C         -72.4355   25.2291  -78.2425 C.2       8 UNK         0.5041 
     34 O         -71.4898   25.5432  -78.9663 O.2       8 UNK        -0.5577 
     35 CA        -73.7767   24.8311  -78.8828 C.3       7 UNK         0.0284 
     36 CB        -73.9139   23.3020  -78.9549 C.3       7 UNK        -0.1958 
     37 N         -74.9326   25.4063  -78.1854 N.am      7 UNK        -0.4454 
     38 C         -75.1890   26.7208  -78.0974 C.2       7 UNK         0.5089 
     39 O         -74.5070   27.5888  -78.6403 O.2       7 UNK        -0.5125 
     40 CA        -76.3703   27.1504  -77.2135 C.3       6 UNK         0.0408 
     41 CB        -77.7014   27.0156  -77.9690 C.3       6 UNK        -0.1791 
     42 N         -76.4369   26.3942  -75.9648 N.am      6 UNK        -0.4762 
     43 C         -75.5307   26.4402  -74.9791 C.2       6 UNK         0.5007 
     44 O         -74.5427   27.1769  -74.9770 O.2       6 UNK        -0.5032 
     45 CA        -75.7460   25.4743  -73.8010 C.3       5 UNK         0.0783 
     46 C46       -76.7393   26.0745  -72.7820 C.3       11 UNK        -0.0857 
     47 S47       -76.6074   25.2655  -71.1527 S.3       11 UNK        -0.2512 
     48 C48       -78.0505   25.9365  -70.2456 C.3       11 UNK         0.0225 
     49 N         -76.1465   24.1419  -74.2571 N.am      5 UNK        -0.4615 
     50 C         -75.3707   23.3192  -74.9747 C.2       4 UNK         0.5053 
     51 O         -74.2172   23.5859  -75.3117 O.2       4 UNK        -0.5105 
     52 CA        -76.0056   21.9926  -75.4230 C.3       4 UNK         0.0263 
     53 CB        -75.9317   20.9499  -74.2964 C.3       4 UNK        -0.1981 
     54 N         -77.3965   22.1531  -75.8567 N.am      4 UNK        -0.4224 
     55 C         -77.7701   22.8368  -76.9480 C.2       3 UNK         0.4895 
     56 O         -76.9806   23.3708  -77.7267 O.2       3 UNK        -0.5091 
     57 CA        -79.2830   22.9968  -77.1811 C.3       3 UNK         0.0250 
     58 CB        -79.8684   21.7342  -77.8336 C.3       3 UNK        -0.1996 
     59 N         -80.0454   23.3297  -75.9696 N.am      3 UNK        -0.4254 
     60 C         -79.8114   24.3986  -75.1954 C.2       2 UNK         0.5004 
     61 O         -78.8714   25.1742  -75.3732 O.2       2 UNK        -0.5226 
     62 CA        -80.7502   24.6179  -73.9957 C.3       2 UNK         0.0269 
     63 CB        -80.3150   23.7336  -72.8152 C.3       2 UNK        -0.1926 
     64 N         -80.7525   26.0212  -73.5634 N.am      2 UNK        -0.4687 
     65 C         -81.2324   27.0369  -74.2962 C.2       1 UNK         0.5165 
     66 O         -81.8444   26.8701  -75.3543 O.2       1 UNK        -0.5079 
     67 H67       -80.1175   31.0803  -76.6350 H         1 UNK         0.0900 
     68 H68       -81.4563   30.5886  -77.6738 H         1 UNK         0.0900 
     69 H69       -81.6593   31.9336  -76.5478 H         1 UNK         0.0900 
     70 H70       -79.8226   29.7018  -74.9560 H         1 UNK         0.2959 
     71 H71       -80.0210   28.4177  -73.2221 H         1 UNK         0.1079 
     72 H72       -83.0493   28.8694  -73.1248 H         1 UNK         0.0837 
     73 H73       -82.1129   28.0786  -71.8978 H         1 UNK         0.0837 
     74 H74       -81.7874   29.2839  -69.7877 H         1 UNK         0.0685 
     75 H75       -81.0715   30.8647  -69.6251 H         1 UNK         0.0685 
     76 H76       -80.3608   27.3546  -70.1402 H         1 UNK         0.1434 
     77 H77       -76.1147   27.9161  -70.4325 H         1 UNK         0.1329 
     78 H78       -78.7354   31.2941  -70.6125 H         1 UNK         0.1335 
     79 H79       -76.2937   31.6051  -70.4458 H         1 UNK         0.0680 
     80 H80       -75.2582   30.2212  -70.1803 H         1 UNK         0.0680 
     81 H81       -73.6916   31.8942  -73.1234 H         1 UNK         0.1032 
     82 H82       -73.6418   31.4528  -71.4495 H         1 UNK         0.1032 
     83 H83       -71.8896   30.2735  -72.6029 H         1 UNK         0.0461 
     84 H84       -73.3775   27.3101  -73.2483 H         1 UNK         0.3453 
     85 H85       -73.2552   26.7080  -71.6086 H         1 UNK         0.3453 
     86 H86       -73.5599   28.7400  -74.4483 H         1 UNK         0.2984 
     87 H87       -73.3597   29.6361  -76.9082 H         1 UNK         0.0554 
     88 H88       -71.5215   29.6339  -78.5963 H         1 UNK         0.0847 
     89 H89       -70.3413   29.9722  -77.3306 H         1 UNK         0.0847 
     90 H90       -71.5821   31.1539  -77.7190 H         1 UNK         0.0847 
     91 H91       -73.0020   27.4727  -76.8035 H         1 UNK         0.3141 
     92 H92       -70.3373   25.3392  -76.5451 H         1 UNK         0.0743 
     93 H93       -72.3088   25.5523  -74.2087 H         1 UNK         0.0784 
     94 H94       -71.3671   24.1326  -74.6500 H         1 UNK         0.0784 
     95 H95       -70.5572   25.5730  -74.0540 H         1 UNK         0.0784 
     96 H96       -73.1831   24.8871  -76.3819 H         1 UNK         0.3213 
     97 H97       -73.7815   25.2196  -79.9035 H         1 UNK         0.0855 
     98 H98       -73.9470   22.8510  -77.9630 H         1 UNK         0.0814 
     99 H99       -73.0711   22.8591  -79.4872 H         1 UNK         0.0814 
    100 H100      -74.8207   23.0103  -79.4849 H         1 UNK         0.0814 
    101 H101      -75.5867   24.7513  -77.7646 H         1 UNK         0.3105 
    102 H102      -76.2304   28.2025  -76.9564 H         1 UNK         0.0547 
    103 H103      -77.6885   27.5985  -78.8908 H         1 UNK         0.0837 
    104 H104      -77.9095   25.9798  -78.2389 H         1 UNK         0.0837 
    105 H105      -78.5364   27.3757  -77.3673 H         1 UNK         0.0837 
    106 H106      -77.2574   25.8019  -75.8344 H         1 UNK         0.3020 
    107 H107      -74.7765   25.3649  -73.3114 H         1 UNK         0.1245 
    108 H108      -77.7665   26.0092  -73.1410 H         1 UNK         0.0781 
    109 H109      -76.5319   27.1368  -72.6515 H         1 UNK         0.0781 
    110 H110      -77.9686   25.6390  -69.1995 H         1 UNK         0.0836 
    111 H111      -78.9467   25.4493  -70.6307 H         1 UNK         0.0836 
    112 H112      -77.0975   23.8694  -74.0626 H         1 UNK         0.3022 
    113 H113      -75.4285   21.6192  -76.2716 H         1 UNK         0.0747 
    114 H114      -76.3066   19.9812  -74.6274 H         1 UNK         0.0793 
    115 H115      -74.9010   20.8022  -73.9706 H         1 UNK         0.0793 
    116 H116      -76.5091   21.2535  -73.4222 H         1 UNK         0.0793 
    117 H117      -78.1132   21.7472  -75.2731 H         1 UNK         0.3047 
    118 H118      -79.4123   23.8272  -77.8786 H         1 UNK         0.0822 
    119 H119      -79.8170   20.8714  -77.1684 H         1 UNK         0.0807 
    120 H120      -79.3238   21.4772  -78.7435 H         1 UNK         0.0807 
    121 H121      -80.9116   21.8799  -78.1147 H         1 UNK         0.0807 
    122 H122      -80.8265   22.7284  -75.7488 H         1 UNK         0.2946 
    123 H123      -81.7664   24.3489  -74.2933 H         1 UNK         0.1144 
    124 H124      -80.3806   22.6757  -73.0727 H         1 UNK         0.0793 
    125 H125      -80.9516   23.8901  -71.9441 H         1 UNK         0.0793 
    126 H126      -79.2841   23.9303  -72.5192 H         1 UNK         0.0793 
    127 H127      -80.2503   26.2275  -72.7138 H         1 UNK         0.2896 
@<TRIPOS>BOND
     1    1    2 1    
     2    1   67 1    
     3    1   68 1    
     4    1   69 1    
     5    2    3 2    
     6    2    4 am   BACKBONE|DICT|INTERRES
     7    4    5 1    
     8    4   70 1    
     9    5    6 1    
    10    5   65 1    
    11    5   71 1    
    12    6    7 1    
    13    6   72 1    
    14    6   73 1    
    15    7    8 1    
    16    8    9 1    
    17    8   74 1    
    18    8   75 1    
    19    9   10 ar   
    20    9   14 ar   
    21   10   11 ar   
    22   10   76 1    
    23   11   12 ar   
    24   11   48 1    
    25   12   13 ar   
    26   12   77 1    
    27   13   14 ar   
    28   13   15 1    
    29   14   78 1    
    30   15   16 1    
    31   15   79 1    
    32   15   80 1    
    33   16   17 1    
    34   17   18 1    
    35   17   81 1    
    36   17   82 1    
    37   18   19 1    
    38   18   22 1    
    39   18   83 1    
    40   19   20 am   BACKBONE|DICT|INTERRES
    41   19   21 2    
    42   20   84 1    
    43   20   85 1    
    44   22   23 am   BACKBONE|DICT|INTERRES
    45   22   86 1    
    46   23   24 2    
    47   23   25 1    
    48   25   26 1    
    49   25   27 1    
    50   25   87 1    
    51   26   88 1    
    52   26   89 1    
    53   26   90 1    
    54   27   28 am   BACKBONE|DICT|INTERRES
    55   27   91 1    
    56   28   29 2    
    57   28   30 1    
    58   30   31 1    
    59   30   32 1    
    60   30   92 1    
    61   31   93 1    
    62   31   94 1    
    63   31   95 1    
    64   32   33 am   BACKBONE|DICT|INTERRES
    65   32   96 1    
    66   33   34 2    
    67   33   35 1    
    68   35   36 1    
    69   35   37 1    
    70   35   97 1    
    71   36   98 1    
    72   36   99 1    
    73   36  100 1    
    74   37   38 am   BACKBONE|DICT|INTERRES
    75   37  101 1    
    76   38   39 2    
    77   38   40 1    
    78   40   41 1    
    79   40   42 1    
    80   40  102 1    
    81   41  103 1    
    82   41  104 1    
    83   41  105 1    
    84   42   43 am   BACKBONE|DICT|INTERRES
    85   42  106 1    
    86   43   44 2    
    87   43   45 1    
    88   45   46 1    
    89   45   49 1    
    90   45  107 1    
    91   46   47 1    
    92   46  108 1    
    93   46  109 1    
    94   47   48 1    
    95   48  110 1    
    96   48  111 1    
    97   49   50 am   BACKBONE|DICT|INTERRES
    98   49  112 1    
    99   50   51 2    
   100   50   52 1    
   101   52   53 1    
   102   52   54 1    
   103   52  113 1    
   104   53  114 1    
   105   53  115 1    
   106   53  116 1    
   107   54   55 am   BACKBONE|DICT|INTERRES
   108   54  117 1    
   109   55   56 2    
   110   55   57 1    
   111   57   58 1    
   112   57   59 1    
   113   57  118 1    
   114   58  119 1    
   115   58  120 1    
   116   58  121 1    
   117   59   60 am   BACKBONE|DICT|INTERRES
   118   59  122 1    
   119   60   61 2    
   120   60   62 1    
   121   62   63 1    
   122   62   64 1    
   123   62  123 1    
   124   63  124 1    
   125   63  125 1    
   126   63  126 1    
   127   64   65 am   BACKBONE|DICT|INTERRES
   128   64  127 1    
   129   65   66 2    
@<TRIPOS>SUBSTRUCTURE
     1 UNK         1 GROUP             0       ****    0 ROOT    
