@<TRIPOS>MOLECULE
3R135
127   129    1
SMALL
USER_CHARGES


@<TRIPOS>ATOM
      1 CA        -80.7609   29.3844  -77.0423 C.3       0 UNK        -0.1998 
      2 C         -80.4738   28.5880  -75.7793 C.2       0 UNK         0.4909 
      3 O         -79.3926   28.0159  -75.6422 O.2       0 UNK        -0.5240 
      4 N         -81.4362   28.5358  -74.8529 N.am      1 UNK        -0.4739 
      5 CA        -81.3387   27.8119  -73.5814 C.3       1 UNK         0.0864 
      6 C6        -82.2097   28.4705  -72.4785 C.3       11 UNK        -0.0881 
      7 S7        -81.7901   30.2305  -72.2023 S.3       11 UNK        -0.2682 
      8 C8        -80.9802   30.2131  -70.5702 C.3       11 UNK         0.0289 
      9 C9        -79.5500   29.6974  -70.6421 C.ar      11 UNK        -0.0687 
     10 C10       -79.2796   28.3479  -70.3976 C.ar      11 UNK        -0.0823 
     11 C11       -77.9705   27.8663  -70.4723 C.ar      11 UNK        -0.0830 
     12 C12       -76.9236   28.7480  -70.7447 C.ar      11 UNK        -0.1021 
     13 C13       -77.1796   30.0947  -71.0038 C.ar      11 UNK        -0.0753 
     14 C14       -78.4960   30.5675  -70.9503 C.ar      11 UNK        -0.0933 
     15 C15       -76.0187   31.0168  -71.3409 C.3       11 UNK         0.0166 
     16 S16       -75.2908   30.6094  -72.9660 S.3       11 UNK        -0.2615 
     17 C17       -73.5092   30.8948  -72.6545 C.3       11 UNK        -0.0865 
     18 CA        -72.6100   29.6273  -72.7807 C.3       10 UNK         0.0862 
     19 C         -72.9986   28.4643  -71.8288 C.2       10 UNK         0.5551 
     20 N         -73.0453   28.7181  -70.5273 N.am      10 UNK        -0.7319 
     21 O         -73.2431   27.3354  -72.2431 O.2       10 UNK        -0.5018 
     22 N         -72.4355   29.2037  -74.1808 N.am      10 UNK        -0.4509 
     23 C         -71.5708   29.7882  -75.0227 C.2       10 UNK         0.4899 
     24 O         -70.8213   30.7054  -74.6808 O.2       10 UNK        -0.4839 
     25 CA        -71.5518   29.3344  -76.4963 C.3       9 UNK         0.0222 
     26 CB        -70.2066   29.6256  -77.1976 C.3       9 UNK        -0.1966 
     27 N         -71.9730   27.9510  -76.7294 N.am      9 UNK        -0.4218 
     28 C         -71.3600   26.8183  -76.3492 C.2       9 UNK         0.5020 
     29 O         -70.3213   26.7933  -75.6873 O.2       9 UNK        -0.5274 
     30 CA        -72.0012   25.4847  -76.7923 C.3       8 UNK         0.0270 
     31 CB        -72.0886   24.4899  -75.6209 C.3       8 UNK        -0.1976 
     32 N         -73.3454   25.6900  -77.3385 N.am      8 UNK        -0.4313 
     33 C         -73.6798   25.6665  -78.6371 C.2       8 UNK         0.5041 
     34 O         -72.9025   25.3429  -79.5355 O.2       8 UNK        -0.5577 
     35 CA        -75.1091   26.1159  -79.0132 C.3       7 UNK         0.0284 
     36 CB        -76.0124   24.9056  -79.2876 C.3       7 UNK        -0.1958 
     37 N         -75.7449   26.9632  -78.0001 N.am      7 UNK        -0.4454 
     38 C         -75.3325   28.1936  -77.6674 C.2       7 UNK         0.5089 
     39 O         -74.4323   28.7909  -78.2555 O.2       7 UNK        -0.5125 
     40 CA        -75.9616   28.8260  -76.4145 C.3       6 UNK         0.0408 
     41 CB        -77.0743   29.8046  -76.8105 C.3       6 UNK        -0.1791 
     42 N         -76.4624   27.8380  -75.4446 N.am      6 UNK        -0.4762 
     43 C         -75.6646   26.9789  -74.7853 C.2       6 UNK         0.5007 
     44 O         -74.4565   26.9106  -75.0083 O.2       6 UNK        -0.5032 
     45 CA        -76.2736   26.0302  -73.7361 C.3       5 UNK         0.0783 
     46 C46       -77.6613   26.4753  -73.2317 C.3       11 UNK        -0.0857 
     47 S47       -78.2746   25.4727  -71.8287 S.3       11 UNK        -0.2512 
     48 C48       -77.6867   26.3792  -70.3594 C.3       11 UNK         0.0225 
     49 N         -76.3229   24.6770  -74.2939 N.am      5 UNK        -0.4615 
     50 C         -75.5246   23.6666  -73.9230 C.2       4 UNK         0.5053 
     51 O         -74.5995   23.7918  -73.1206 O.2       4 UNK        -0.5105 
     52 CA        -75.8096   22.2658  -74.5026 C.3       4 UNK         0.0263 
     53 CB        -75.9086   21.2166  -73.3796 C.3       4 UNK        -0.1981 
     54 N         -77.0495   22.2235  -75.2818 N.am      4 UNK        -0.4224 
     55 C         -77.1256   22.1166  -76.6141 C.2       3 UNK         0.4895 
     56 O         -76.1447   21.9604  -77.3412 O.2       3 UNK        -0.5091 
     57 CA        -78.5262   22.1985  -77.2605 C.3       3 UNK         0.0250 
     58 CB        -78.9376   20.8275  -77.8230 C.3       3 UNK        -0.1996 
     59 N         -79.5973   22.6921  -76.3820 N.am      3 UNK        -0.4254 
     60 C         -79.6565   23.9195  -75.8480 C.2       2 UNK         0.5004 
     61 O         -78.7798   24.7723  -76.0177 O.2       2 UNK        -0.5226 
     62 CA        -80.8549   24.2124  -74.9289 C.3       2 UNK         0.0269 
     63 CB        -80.8105   23.2985  -73.6834 C.3       2 UNK        -0.1926 
     64 N         -80.8095   25.6254  -74.5526 N.am      2 UNK        -0.4687 
     65 C         -81.6785   26.3203  -73.8088 C.2       1 UNK         0.5165 
     66 O         -82.7203   25.8457  -73.3521 O.2       1 UNK        -0.5079 
     67 H67       -80.5006   28.7976  -77.9227 H         1 UNK         0.0900 
     68 H68       -81.8125   29.6597  -77.1182 H         1 UNK         0.0900 
     69 H69       -80.1680   30.2983  -77.0516 H         1 UNK         0.0900 
     70 H70       -82.3103   29.0153  -75.0138 H         1 UNK         0.2959 
     71 H71       -80.3046   27.8517  -73.2314 H         1 UNK         0.1079 
     72 H72       -82.1161   27.9218  -71.5401 H         1 UNK         0.0837 
     73 H73       -83.2664   28.4215  -72.7481 H         1 UNK         0.0837 
     74 H74       -80.9778   31.2297  -70.1740 H         1 UNK         0.0685 
     75 H75       -81.5709   29.6202  -69.8701 H         1 UNK         0.0685 
     76 H76       -80.0888   27.6626  -70.1860 H         1 UNK         0.1434 
     77 H77       -75.9099   28.3776  -70.8124 H         1 UNK         0.1329 
     78 H78       -78.7028   31.6099  -71.1509 H         1 UNK         0.1335 
     79 H79       -76.3342   32.0611  -71.3429 H         1 UNK         0.0680 
     80 H80       -75.2730   30.9202  -70.5511 H         1 UNK         0.0680 
     81 H81       -73.1693   31.6579  -73.3559 H         1 UNK         0.1032 
     82 H82       -73.3699   31.3490  -71.6732 H         1 UNK         0.1032 
     83 H83       -71.6182   29.9114  -72.4227 H         1 UNK         0.0461 
     84 H84       -72.8207   29.6290  -70.1609 H         1 UNK         0.3453 
     85 H85       -73.2778   27.9692  -69.8947 H         1 UNK         0.3453 
     86 H86       -73.0030   28.4152  -74.4766 H         1 UNK         0.2984 
     87 H87       -72.3043   29.9501  -76.9902 H         1 UNK         0.0554 
     88 H88       -70.2302   29.3229  -78.2444 H         1 UNK         0.0847 
     89 H89       -69.3779   29.1058  -76.7158 H         1 UNK         0.0847 
     90 H90       -69.9749   30.6912  -77.1783 H         1 UNK         0.0847 
     91 H91       -72.8227   27.8647  -77.2743 H         1 UNK         0.3141 
     92 H92       -71.3486   25.0541  -77.5542 H         1 UNK         0.0743 
     93 H93       -72.6468   24.9059  -74.7811 H         1 UNK         0.0784 
     94 H94       -72.5756   23.5619  -75.9209 H         1 UNK         0.0784 
     95 H95       -71.0956   24.2300  -75.2524 H         1 UNK         0.0784 
     96 H96       -74.0288   26.0072  -76.6559 H         1 UNK         0.3213 
     97 H97       -75.0295   26.6969  -79.9347 H         1 UNK         0.0855 
     98 H98       -76.1966   24.3385  -78.3773 H         1 UNK         0.0814 
     99 H99       -75.5572   24.2277  -80.0112 H         1 UNK         0.0814 
    100 H100      -76.9771   25.2125  -79.6920 H         1 UNK         0.0814 
    101 H101      -76.4977   26.5561  -77.4620 H         1 UNK         0.3105 
    102 H102      -75.1792   29.4005  -75.9138 H         1 UNK         0.0547 
    103 H103      -76.6760   30.6200  -77.4154 H         1 UNK         0.0837 
    104 H104      -77.8465   29.3123  -77.4012 H         1 UNK         0.0837 
    105 H105      -77.5448   30.2503  -75.9338 H         1 UNK         0.0837 
    106 H106      -77.4685   27.8304  -75.2911 H         1 UNK         0.3020 
    107 H107      -75.5918   26.0642  -72.8829 H         1 UNK         0.1245 
    108 H108      -78.3817   26.3636  -74.0332 H         1 UNK         0.0781 
    109 H109      -77.6735   27.5367  -72.9912 H         1 UNK         0.0781 
    110 H110      -76.6183   26.1953  -70.2352 H         1 UNK         0.0836 
    111 H111      -78.1736   25.9771  -69.4699 H         1 UNK         0.0836 
    112 H112      -77.0525   24.5154  -74.9797 H         1 UNK         0.3022 
    113 H113      -74.9551   22.0079  -75.1316 H         1 UNK         0.0747 
    114 H114      -76.0926   20.2208  -73.7834 H         1 UNK         0.0793 
    115 H115      -74.9819   21.1635  -72.8066 H         1 UNK         0.0793 
    116 H116      -76.7123   21.4497  -72.6799 H         1 UNK         0.0793 
    117 H117      -77.9088   22.3395  -74.7647 H         1 UNK         0.3047 
    118 H118      -78.4433   22.8969  -78.0961 H         1 UNK         0.0822 
    119 H119      -79.0582   20.0866  -77.0316 H         1 UNK         0.0807 
    120 H120      -78.1850   20.4453  -78.5144 H         1 UNK         0.0807 
    121 H121      -79.8762   20.8885  -78.3741 H         1 UNK         0.0807 
    122 H122      -80.3459   22.0426  -76.1859 H         1 UNK         0.2946 
    123 H123      -81.7750   24.0348  -75.4892 H         1 UNK         0.1144 
    124 H124      -81.6368   23.4945  -73.0012 H         1 UNK         0.0793 
    125 H125      -79.8834   23.4227  -73.1247 H         1 UNK         0.0793 
    126 H126      -80.8828   22.2460  -73.9591 H         1 UNK         0.0793 
    127 H127      -80.0243   26.1257  -74.9630 H         1 UNK         0.2896 
@<TRIPOS>BOND
     1    1    2 1    
     2    1   67 1    
     3    1   68 1    
     4    1   69 1    
     5    2    3 2    
     6    2    4 am   BACKBONE|DICT|INTERRES
     7    4    5 1    
     8    4   70 1    
     9    5    6 1    
    10    5   65 1    
    11    5   71 1    
    12    6    7 1    
    13    6   72 1    
    14    6   73 1    
    15    7    8 1    
    16    8    9 1    
    17    8   74 1    
    18    8   75 1    
    19    9   10 ar   
    20    9   14 ar   
    21   10   11 ar   
    22   10   76 1    
    23   11   12 ar   
    24   11   48 1    
    25   12   13 ar   
    26   12   77 1    
    27   13   14 ar   
    28   13   15 1    
    29   14   78 1    
    30   15   16 1    
    31   15   79 1    
    32   15   80 1    
    33   16   17 1    
    34   17   18 1    
    35   17   81 1    
    36   17   82 1    
    37   18   19 1    
    38   18   22 1    
    39   18   83 1    
    40   19   20 am   BACKBONE|DICT|INTERRES
    41   19   21 2    
    42   20   84 1    
    43   20   85 1    
    44   22   23 am   BACKBONE|DICT|INTERRES
    45   22   86 1    
    46   23   24 2    
    47   23   25 1    
    48   25   26 1    
    49   25   27 1    
    50   25   87 1    
    51   26   88 1    
    52   26   89 1    
    53   26   90 1    
    54   27   28 am   BACKBONE|DICT|INTERRES
    55   27   91 1    
    56   28   29 2    
    57   28   30 1    
    58   30   31 1    
    59   30   32 1    
    60   30   92 1    
    61   31   93 1    
    62   31   94 1    
    63   31   95 1    
    64   32   33 am   BACKBONE|DICT|INTERRES
    65   32   96 1    
    66   33   34 2    
    67   33   35 1    
    68   35   36 1    
    69   35   37 1    
    70   35   97 1    
    71   36   98 1    
    72   36   99 1    
    73   36  100 1    
    74   37   38 am   BACKBONE|DICT|INTERRES
    75   37  101 1    
    76   38   39 2    
    77   38   40 1    
    78   40   41 1    
    79   40   42 1    
    80   40  102 1    
    81   41  103 1    
    82   41  104 1    
    83   41  105 1    
    84   42   43 am   BACKBONE|DICT|INTERRES
    85   42  106 1    
    86   43   44 2    
    87   43   45 1    
    88   45   46 1    
    89   45   49 1    
    90   45  107 1    
    91   46   47 1    
    92   46  108 1    
    93   46  109 1    
    94   47   48 1    
    95   48  110 1    
    96   48  111 1    
    97   49   50 am   BACKBONE|DICT|INTERRES
    98   49  112 1    
    99   50   51 2    
   100   50   52 1    
   101   52   53 1    
   102   52   54 1    
   103   52  113 1    
   104   53  114 1    
   105   53  115 1    
   106   53  116 1    
   107   54   55 am   BACKBONE|DICT|INTERRES
   108   54  117 1    
   109   55   56 2    
   110   55   57 1    
   111   57   58 1    
   112   57   59 1    
   113   57  118 1    
   114   58  119 1    
   115   58  120 1    
   116   58  121 1    
   117   59   60 am   BACKBONE|DICT|INTERRES
   118   59  122 1    
   119   60   61 2    
   120   60   62 1    
   121   62   63 1    
   122   62   64 1    
   123   62  123 1    
   124   63  124 1    
   125   63  125 1    
   126   63  126 1    
   127   64   65 am   BACKBONE|DICT|INTERRES
   128   64  127 1    
   129   65   66 2    
@<TRIPOS>SUBSTRUCTURE
     1 UNK         1 GROUP             0       ****    0 ROOT    
