@<TRIPOS>MOLECULE
3R135
127   129    1
SMALL
USER_CHARGES


@<TRIPOS>ATOM
      1 CA        -81.6402   28.7521  -75.7258 C.3       0 UNK        -0.1998 
      2 C         -81.1179   27.6393  -74.8306 C.2       0 UNK         0.4909 
      3 O         -80.1204   26.9952  -75.1623 O.2       0 UNK        -0.5240 
      4 N         -81.7850   27.4109  -73.6935 N.am      1 UNK        -0.4739 
      5 CA        -81.4804   26.3233  -72.7577 C.3       1 UNK         0.0864 
      6 C6        -82.1829   26.5056  -71.3913 C.3       11 UNK        -0.0881 
      7 S7        -81.9028   28.1418  -70.6318 S.3       11 UNK        -0.2682 
      8 C8        -80.1930   28.0000  -70.0013 C.3       11 UNK         0.0289 
      9 C9        -79.1009   28.5325  -70.9343 C.ar      11 UNK        -0.0687 
     10 C10       -79.3422   29.5496  -71.8699 C.ar      11 UNK        -0.0823 
     11 C11       -78.3040   30.0820  -72.6435 C.ar      11 UNK        -0.0830 
     12 C12       -77.0069   29.5899  -72.4662 C.ar      11 UNK        -0.1021 
     13 C13       -76.7481   28.5712  -71.5471 C.ar      11 UNK        -0.0753 
     14 C14       -77.7973   28.0463  -70.7874 C.ar      11 UNK        -0.0933 
     15 C15       -75.3260   28.0667  -71.3619 C.3       11 UNK         0.0166 
     16 S16       -74.3430   29.2616  -70.4051 S.3       11 UNK        -0.2615 
     17 C17       -72.6730   28.5317  -70.4912 C.3       11 UNK        -0.0865 
     18 CA        -71.7816   29.2239  -71.5576 C.3       10 UNK         0.0862 
     19 C         -70.2834   28.8285  -71.3869 C.2       10 UNK         0.5551 
     20 N         -69.6138   28.2553  -72.3807 N.am      10 UNK        -0.7319 
     21 O         -69.7111   29.0562  -70.3240 O.2       10 UNK        -0.5018 
     22 N         -72.3141   29.0100  -72.9109 N.am      10 UNK        -0.4509 
     23 C         -72.0763   29.7844  -73.9763 C.2       10 UNK         0.4899 
     24 O         -71.4562   30.8476  -73.9285 O.2       10 UNK        -0.4839 
     25 CA        -72.6182   29.2579  -75.3225 C.3       9 UNK         0.0222 
     26 CB        -71.9003   29.8715  -76.5422 C.3       9 UNK        -0.1966 
     27 N         -72.6237   27.7891  -75.4053 N.am      9 UNK        -0.4218 
     28 C         -71.5671   26.9694  -75.2822 C.2       9 UNK         0.5020 
     29 O         -70.4119   27.3590  -75.1090 O.2       9 UNK        -0.5274 
     30 CA        -71.8436   25.4615  -75.3031 C.3       8 UNK         0.0270 
     31 CB        -72.2385   24.9750  -73.8972 C.3       8 UNK        -0.1976 
     32 N         -72.9004   25.1094  -76.2553 N.am      8 UNK        -0.4313 
     33 C         -72.7178   24.3480  -77.3413 C.2       8 UNK         0.5041 
     34 O         -71.6295   23.8795  -77.6794 O.2       8 UNK        -0.5577 
     35 CA        -73.9573   24.0264  -78.1907 C.3       7 UNK         0.0284 
     36 CB        -74.7229   22.8329  -77.5958 C.3       7 UNK        -0.1958 
     37 N         -74.8739   25.1546  -78.3637 N.am      7 UNK        -0.4454 
     38 C         -74.6260   26.2249  -79.1322 C.2       7 UNK         0.5089 
     39 O         -73.5531   26.4298  -79.7002 O.2       7 UNK        -0.5125 
     40 CA        -75.7790   27.2225  -79.3210 C.3       6 UNK         0.0408 
     41 CB        -76.8205   26.6647  -80.3053 C.3       6 UNK        -0.1791 
     42 N         -76.4281   27.5247  -78.0468 N.am      6 UNK        -0.4762 
     43 C         -76.1384   28.5853  -77.2794 C.2       6 UNK         0.5007 
     44 O         -75.3527   29.4730  -77.6104 O.2       6 UNK        -0.5032 
     45 CA        -76.8198   28.6602  -75.8955 C.3       5 UNK         0.0783 
     46 C46       -78.0134   29.6517  -75.8890 C.3       11 UNK        -0.0857 
     47 S47       -77.5784   31.2498  -75.1307 S.3       11 UNK        -0.2512 
     48 C48       -78.6015   31.2286  -73.6129 C.3       11 UNK         0.0225 
     49 N         -77.1968   27.3418  -75.3730 N.am      5 UNK        -0.4615 
     50 C         -76.3103   26.4054  -75.0121 C.2       4 UNK         0.5053 
     51 O         -75.0914   26.5570  -75.0889 O.2       4 UNK        -0.5105 
     52 CA        -76.8557   25.0572  -74.5282 C.3       4 UNK         0.0263 
     53 CB        -77.0677   25.0828  -73.0075 C.3       4 UNK        -0.1981 
     54 N         -78.0975   24.6443  -75.1793 N.am      4 UNK        -0.4224 
     55 C         -78.2983   24.4558  -76.4915 C.2       3 UNK         0.4895 
     56 O         -77.4526   24.7137  -77.3493 O.2       3 UNK        -0.5091 
     57 CA        -79.6790   23.9160  -76.9253 C.3       3 UNK         0.0250 
     58 CB        -79.5518   22.7949  -77.9770 C.3       3 UNK        -0.1996 
     59 N         -80.5406   23.5102  -75.8017 N.am      3 UNK        -0.4254 
     60 C         -80.3460   22.5202  -74.9145 C.2       2 UNK         0.5004 
     61 O         -79.4601   21.6708  -75.0139 O.2       2 UNK        -0.5226 
     62 CA        -81.2248   22.5724  -73.6463 C.3       2 UNK         0.0269 
     63 CB        -80.8433   21.4958  -72.6125 C.3       2 UNK        -0.1926 
     64 N         -81.1300   23.8958  -73.0113 N.am      2 UNK        -0.4687 
     65 C         -81.8483   24.9623  -73.3869 C.2       1 UNK         0.5165 
     66 O         -82.7473   24.8954  -74.2300 O.2       1 UNK        -0.5079 
     67 H67       -81.3812   28.5556  -76.7659 H         1 UNK         0.0900 
     68 H68       -81.2048   29.7082  -75.4387 H         1 UNK         0.0900 
     69 H69       -82.7248   28.8351  -75.6600 H         1 UNK         0.0900 
     70 H70       -82.5989   27.9642  -73.4683 H         1 UNK         0.2959 
     71 H71       -80.4011   26.3344  -72.5898 H         1 UNK         0.1079 
     72 H72       -83.2622   26.3819  -71.5025 H         1 UNK         0.0837 
     73 H73       -81.8655   25.7338  -70.6874 H         1 UNK         0.0837 
     74 H74       -79.9922   26.9602  -69.7390 H         1 UNK         0.0685 
     75 H75       -80.1338   28.5636  -69.0695 H         1 UNK         0.0685 
     76 H76       -80.3380   29.9549  -71.9795 H         1 UNK         0.1434 
     77 H77       -76.1848   30.0130  -73.0258 H         1 UNK         0.1329 
     78 H78       -77.5916   27.2756  -70.0570 H         1 UNK         0.1335 
     79 H79       -74.8717   27.9053  -72.3400 H         1 UNK         0.0680 
     80 H80       -75.3204   27.1030  -70.8505 H         1 UNK         0.0680 
     81 H81       -72.2332   28.6385  -69.4975 H         1 UNK         0.1032 
     82 H82       -72.7381   27.4574  -70.6732 H         1 UNK         0.1032 
     83 H83       -71.8160   30.2974  -71.3612 H         1 UNK         0.0461 
     84 H84       -68.6454   28.0164  -72.2400 H         1 UNK         0.3453 
     85 H85       -70.0460   28.0729  -73.2796 H         1 UNK         0.3453 
     86 H86       -72.8174   28.1494  -73.0560 H         1 UNK         0.2984 
     87 H87       -73.6618   29.5698  -75.3652 H         1 UNK         0.0554 
     88 H88       -72.0055   30.9569  -76.5536 H         1 UNK         0.0847 
     89 H89       -72.3220   29.4983  -77.4757 H         1 UNK         0.0847 
     90 H90       -70.8332   29.6473  -76.5406 H         1 UNK         0.0847 
     91 H91       -73.5471   27.3609  -75.4495 H         1 UNK         0.3141 
     92 H92       -70.9060   24.9706  -75.5722 H         1 UNK         0.0743 
     93 H93       -71.4681   25.2254  -73.1663 H         1 UNK         0.0784 
     94 H94       -73.1720   25.4223  -73.5544 H         1 UNK         0.0784 
     95 H95       -72.3623   23.8921  -73.8771 H         1 UNK         0.0784 
     96 H96       -73.8276   25.4727  -76.0571 H         1 UNK         0.3213 
     97 H97       -73.6042   23.7338  -79.1822 H         1 UNK         0.0855 
     98 H98       -75.1232   23.0598  -76.6076 H         1 UNK         0.0814 
     99 H99       -74.0724   21.9634  -77.4929 H         1 UNK         0.0814 
    100 H100      -75.5574   22.5396  -78.2332 H         1 UNK         0.0814 
    101 H101      -75.8058   25.0447  -77.9658 H         1 UNK         0.3105 
    102 H102      -75.3665   28.1346  -79.7578 H         1 UNK         0.0547 
    103 H103      -77.2855   25.7501  -79.9352 H         1 UNK         0.0837 
    104 H104      -77.6129   27.3890  -80.4935 H         1 UNK         0.0837 
    105 H105      -76.3614   26.4307  -81.2667 H         1 UNK         0.0837 
    106 H106      -77.0534   26.8176  -77.6785 H         1 UNK         0.3020 
    107 H107      -76.0519   29.0347  -75.2163 H         1 UNK         0.1245 
    108 H108      -78.8403   29.2420  -75.3164 H         1 UNK         0.0781 
    109 H109      -78.4176   29.8282  -76.8880 H         1 UNK         0.0781 
    110 H110      -78.4520   32.1706  -73.0841 H         1 UNK         0.0836 
    111 H111      -79.6513   31.2083  -73.9097 H         1 UNK         0.0836 
    112 H112      -78.1915   27.1431  -75.2907 H         1 UNK         0.3022 
    113 H113      -76.1029   24.3004  -74.7552 H         1 UNK         0.0747 
    114 H114      -76.1435   25.3434  -72.4906 H         1 UNK         0.0793 
    115 H115      -77.3809   24.1084  -72.6322 H         1 UNK         0.0793 
    116 H116      -77.8224   25.8156  -72.7192 H         1 UNK         0.0793 
    117 H117      -78.8759   24.4465  -74.5712 H         1 UNK         0.3047 
    118 H118      -80.1864   24.7578  -77.3989 H         1 UNK         0.0822 
    119 H119      -79.0435   23.1560  -78.8720 H         1 UNK         0.0807 
    120 H120      -80.5301   22.4280  -78.2871 H         1 UNK         0.0807 
    121 H121      -78.9773   21.9477  -77.6018 H         1 UNK         0.0807 
    122 H122      -81.3039   24.1480  -75.6001 H         1 UNK         0.2946 
    123 H123      -82.2548   22.3827  -73.9585 H         1 UNK         0.1144 
    124 H124      -80.9327   20.4956  -73.0388 H         1 UNK         0.0793 
    125 H125      -81.4977   21.5335  -71.7415 H         1 UNK         0.0793 
    126 H126      -79.8157   21.6122  -72.2657 H         1 UNK         0.0793 
    127 H127      -80.4168   24.0031  -72.3037 H         1 UNK         0.2896 
@<TRIPOS>BOND
     1    1    2 1    
     2    1   67 1    
     3    1   68 1    
     4    1   69 1    
     5    2    3 2    
     6    2    4 am   BACKBONE|DICT|INTERRES
     7    4    5 1    
     8    4   70 1    
     9    5    6 1    
    10    5   65 1    
    11    5   71 1    
    12    6    7 1    
    13    6   72 1    
    14    6   73 1    
    15    7    8 1    
    16    8    9 1    
    17    8   74 1    
    18    8   75 1    
    19    9   10 ar   
    20    9   14 ar   
    21   10   11 ar   
    22   10   76 1    
    23   11   12 ar   
    24   11   48 1    
    25   12   13 ar   
    26   12   77 1    
    27   13   14 ar   
    28   13   15 1    
    29   14   78 1    
    30   15   16 1    
    31   15   79 1    
    32   15   80 1    
    33   16   17 1    
    34   17   18 1    
    35   17   81 1    
    36   17   82 1    
    37   18   19 1    
    38   18   22 1    
    39   18   83 1    
    40   19   20 am   BACKBONE|DICT|INTERRES
    41   19   21 2    
    42   20   84 1    
    43   20   85 1    
    44   22   23 am   BACKBONE|DICT|INTERRES
    45   22   86 1    
    46   23   24 2    
    47   23   25 1    
    48   25   26 1    
    49   25   27 1    
    50   25   87 1    
    51   26   88 1    
    52   26   89 1    
    53   26   90 1    
    54   27   28 am   BACKBONE|DICT|INTERRES
    55   27   91 1    
    56   28   29 2    
    57   28   30 1    
    58   30   31 1    
    59   30   32 1    
    60   30   92 1    
    61   31   93 1    
    62   31   94 1    
    63   31   95 1    
    64   32   33 am   BACKBONE|DICT|INTERRES
    65   32   96 1    
    66   33   34 2    
    67   33   35 1    
    68   35   36 1    
    69   35   37 1    
    70   35   97 1    
    71   36   98 1    
    72   36   99 1    
    73   36  100 1    
    74   37   38 am   BACKBONE|DICT|INTERRES
    75   37  101 1    
    76   38   39 2    
    77   38   40 1    
    78   40   41 1    
    79   40   42 1    
    80   40  102 1    
    81   41  103 1    
    82   41  104 1    
    83   41  105 1    
    84   42   43 am   BACKBONE|DICT|INTERRES
    85   42  106 1    
    86   43   44 2    
    87   43   45 1    
    88   45   46 1    
    89   45   49 1    
    90   45  107 1    
    91   46   47 1    
    92   46  108 1    
    93   46  109 1    
    94   47   48 1    
    95   48  110 1    
    96   48  111 1    
    97   49   50 am   BACKBONE|DICT|INTERRES
    98   49  112 1    
    99   50   51 2    
   100   50   52 1    
   101   52   53 1    
   102   52   54 1    
   103   52  113 1    
   104   53  114 1    
   105   53  115 1    
   106   53  116 1    
   107   54   55 am   BACKBONE|DICT|INTERRES
   108   54  117 1    
   109   55   56 2    
   110   55   57 1    
   111   57   58 1    
   112   57   59 1    
   113   57  118 1    
   114   58  119 1    
   115   58  120 1    
   116   58  121 1    
   117   59   60 am   BACKBONE|DICT|INTERRES
   118   59  122 1    
   119   60   61 2    
   120   60   62 1    
   121   62   63 1    
   122   62   64 1    
   123   62  123 1    
   124   63  124 1    
   125   63  125 1    
   126   63  126 1    
   127   64   65 am   BACKBONE|DICT|INTERRES
   128   64  127 1    
   129   65   66 2    
@<TRIPOS>SUBSTRUCTURE
     1 UNK         1 GROUP             0       ****    0 ROOT    
