@<TRIPOS>MOLECULE
3R135
127   129    1
SMALL
USER_CHARGES


@<TRIPOS>ATOM
      1 CA        -85.0384   28.5989  -74.2807 C.3       0 UNK        -0.1998 
      2 C         -83.9437   27.5671  -74.0559 C.2       0 UNK         0.4909 
      3 O         -84.2401   26.3763  -73.9509 O.2       0 UNK        -0.5240 
      4 N         -82.6807   28.0139  -73.9932 N.am      1 UNK        -0.4739 
      5 CA        -81.4550   27.2269  -73.7848 C.3       1 UNK         0.0864 
      6 C6        -81.4724   26.4027  -72.4681 C.3       11 UNK        -0.0881 
      7 S7        -79.8176   25.8862  -71.8902 S.3       11 UNK        -0.2682 
      8 C8        -79.4296   27.1119  -70.5913 C.3       11 UNK         0.0289 
      9 C9        -78.3460   28.0724  -71.0580 C.ar      11 UNK        -0.0687 
     10 C10       -78.6715   29.1474  -71.8861 C.ar      11 UNK        -0.0823 
     11 C11       -77.6704   29.9684  -72.4127 C.ar      11 UNK        -0.0830 
     12 C12       -76.3363   29.7348  -72.0663 C.ar      11 UNK        -0.1021 
     13 C13       -76.0001   28.6939  -71.1927 C.ar      11 UNK        -0.0753 
     14 C14       -77.0121   27.8691  -70.6912 C.ar      11 UNK        -0.0933 
     15 C15       -74.5451   28.4184  -70.8312 C.3       11 UNK         0.0166 
     16 S16       -73.6867   29.9034  -70.2185 S.3       11 UNK        -0.2615 
     17 C17       -72.0490   29.2407  -69.7601 C.3       11 UNK        -0.0865 
     18 CA        -70.9762   29.4462  -70.8727 C.3       10 UNK         0.0862 
     19 C         -69.5518   29.7126  -70.2986 C.2       10 UNK         0.5551 
     20 N         -68.4917   29.1251  -70.8428 N.am      10 UNK        -0.7319 
     21 O         -69.3954   30.4845  -69.3555 O.2       10 UNK        -0.5018 
     22 N         -70.9918   28.3361  -71.8411 N.am      10 UNK        -0.4509 
     23 C         -71.5621   28.3521  -73.0497 C.2       10 UNK         0.4899 
     24 O         -72.1737   29.3191  -73.5100 O.2       10 UNK        -0.4839 
     25 CA        -71.4341   27.0459  -73.8595 C.3       9 UNK         0.0222 
     26 CB        -72.0555   25.8522  -73.1116 C.3       9 UNK        -0.1966 
     27 N         -72.0778   27.1602  -75.1681 N.am      9 UNK        -0.4218 
     28 C         -71.5269   27.7399  -76.2429 C.2       9 UNK         0.5020 
     29 O         -70.3674   28.1600  -76.2733 O.2       9 UNK        -0.5274 
     30 CA        -72.4298   27.8795  -77.4844 C.3       8 UNK         0.0270 
     31 CB        -71.6558   28.2641  -78.7640 C.3       8 UNK        -0.1976 
     32 N         -73.2780   26.7048  -77.7156 N.am      8 UNK        -0.4313 
     33 C         -72.8890   25.4484  -77.9852 C.2       8 UNK         0.5041 
     34 O         -71.7116   25.1065  -78.1050 O.2       8 UNK        -0.5577 
     35 CA        -73.9870   24.3745  -78.1396 C.3       7 UNK         0.0284 
     36 CB        -73.8936   23.3479  -76.9985 C.3       7 UNK        -0.1958 
     37 N         -75.3488   24.9156  -78.1787 N.am      7 UNK        -0.4454 
     38 C         -75.8880   25.5803  -79.2099 C.2       7 UNK         0.5089 
     39 O         -75.3258   25.7394  -80.2934 O.2       7 UNK        -0.5125 
     40 CA        -77.2660   26.2236  -78.9684 C.3       6 UNK         0.0408 
     41 CB        -78.3902   25.2262  -79.2772 C.3       6 UNK        -0.1791 
     42 N         -77.4201   26.7391  -77.6028 N.am      6 UNK        -0.4762 
     43 C         -76.6949   27.7425  -77.0840 C.2       6 UNK         0.5007 
     44 O         -75.8426   28.3655  -77.7166 O.2       6 UNK        -0.5032 
     45 CA        -76.9128   28.0571  -75.5937 C.3       5 UNK         0.0783 
     46 C46       -78.1000   29.0362  -75.3841 C.3       11 UNK        -0.0857 
     47 S47       -77.5138   30.7427  -75.0955 S.3       11 UNK        -0.2512 
     48 C48       -78.0380   31.0859  -73.3800 C.3       11 UNK         0.0225 
     49 N         -77.0181   26.8189  -74.8087 N.am      5 UNK        -0.4615 
     50 C         -75.9555   26.0453  -74.5416 C.2       4 UNK         0.5053 
     51 O         -74.8127   26.3228  -74.9091 O.2       4 UNK        -0.5105 
     52 CA        -76.1744   24.7338  -73.7676 C.3       4 UNK         0.0263 
     53 CB        -76.0287   24.9433  -72.2542 C.3       4 UNK        -0.1981 
     54 N         -77.4366   24.0422  -74.0329 N.am      4 UNK        -0.4224 
     55 C         -77.7953   23.5138  -75.2099 C.2       3 UNK         0.4895 
     56 O         -77.1805   23.7048  -76.2589 O.2       3 UNK        -0.5091 
     57 CA        -79.0337   22.6010  -75.2077 C.3       3 UNK         0.0250 
     58 CB        -79.2081   21.8129  -73.8934 C.3       3 UNK        -0.1996 
     59 N         -80.2255   23.4049  -75.4445 N.am      3 UNK        -0.4254 
     60 C         -80.7664   23.6500  -76.6436 C.2       2 UNK         0.5004 
     61 O         -80.4317   23.0727  -77.6781 O.2       2 UNK        -0.5226 
     62 CA        -81.8733   24.7214  -76.7120 C.3       2 UNK         0.0269 
     63 CB        -83.2370   24.0727  -77.0015 C.3       2 UNK        -0.1926 
     64 N         -82.0004   25.5685  -75.5187 N.am      2 UNK        -0.4687 
     65 C         -81.0639   26.3847  -75.0181 C.2       1 UNK         0.5165 
     66 O         -79.9314   26.4870  -75.4917 O.2       1 UNK        -0.5079 
     67 H67       -85.7496   28.5756  -73.4555 H         1 UNK         0.0900 
     68 H68       -85.5776   28.3784  -75.2015 H         1 UNK         0.0900 
     69 H69       -84.6385   29.6099  -74.3551 H         1 UNK         0.0900 
     70 H70       -82.5229   29.0041  -74.1234 H         1 UNK         0.2959 
     71 H71       -80.6732   27.9759  -73.6835 H         1 UNK         0.1079 
     72 H72       -81.9569   26.9778  -71.6783 H         1 UNK         0.0837 
     73 H73       -82.0850   25.5065  -72.5812 H         1 UNK         0.0837 
     74 H74       -80.3184   27.6688  -70.2932 H         1 UNK         0.0685 
     75 H75       -79.0978   26.5778  -69.6996 H         1 UNK         0.0685 
     76 H76       -79.7044   29.3223  -72.1497 H         1 UNK         0.1434 
     77 H77       -75.5573   30.3590  -72.4830 H         1 UNK         0.1329 
     78 H78       -76.7583   27.0448  -70.0389 H         1 UNK         0.1335 
     79 H79       -74.4785   27.6352  -70.0745 H         1 UNK         0.0680 
     80 H80       -74.0382   28.0415  -71.7176 H         1 UNK         0.0680 
     81 H81       -72.1281   28.1890  -69.4804 H         1 UNK         0.1032 
     82 H82       -71.7745   29.7594  -68.8400 H         1 UNK         0.1032 
     83 H83       -71.2060   30.3741  -71.3997 H         1 UNK         0.0461 
     84 H84       -68.5830   28.5377  -71.6556 H         1 UNK         0.3453 
     85 H85       -67.5778   29.3160  -70.4624 H         1 UNK         0.3453 
     86 H86       -70.5096   27.5007  -71.5415 H         1 UNK         0.2984 
     87 H87       -70.3714   26.8422  -74.0062 H         1 UNK         0.0554 
     88 H88       -71.5176   25.6293  -72.1899 H         1 UNK         0.0847 
     89 H89       -72.0338   24.9476  -73.7200 H         1 UNK         0.0847 
     90 H90       -73.0926   26.0467  -72.8445 H         1 UNK         0.0847 
     91 H91       -73.0554   26.8774  -75.2091 H         1 UNK         0.3141 
     92 H92       -73.1124   28.7005  -77.2602 H         1 UNK         0.0743 
     93 H93       -71.1353   29.2137  -78.6350 H         1 UNK         0.0784 
     94 H94       -70.9065   27.5162  -79.0251 H         1 UNK         0.0784 
     95 H95       -72.3285   28.3772  -79.6142 H         1 UNK         0.0784 
     96 H96       -74.2726   26.8804  -77.6364 H         1 UNK         0.3213 
     97 H97       -73.8013   23.8555  -79.0824 H         1 UNK         0.0855 
     98 H98       -72.9193   22.8575  -76.9922 H         1 UNK         0.0814 
     99 H99       -74.6484   22.5677  -77.0998 H         1 UNK         0.0814 
    100 H100      -74.0251   23.8199  -76.0251 H         1 UNK         0.0814 
    101 H101      -75.9291   24.7526  -77.3596 H         1 UNK         0.3105 
    102 H102      -77.3645   27.0684  -79.6533 H         1 UNK         0.0547 
    103 H103      -78.3426   24.8955  -80.3154 H         1 UNK         0.0837 
    104 H104      -78.3176   24.3365  -78.6517 H         1 UNK         0.0837 
    105 H105      -79.3740   25.6688  -79.1220 H         1 UNK         0.0837 
    106 H106      -78.0920   26.2746  -77.0037 H         1 UNK         0.3020 
    107 H107      -76.0003   28.5529  -75.2516 H         1 UNK         0.1245 
    108 H108      -78.7076   28.7203  -74.5415 H         1 UNK         0.0781 
    109 H109      -78.7894   29.0439  -76.2312 H         1 UNK         0.0781 
    110 H110      -79.1145   31.2638  -73.3724 H         1 UNK         0.0836 
    111 H111      -77.5755   32.0165  -73.0483 H         1 UNK         0.0836 
    112 H112      -77.9469   26.5198  -74.5403 H         1 UNK         0.3022 
    113 H113      -75.3730   24.0605  -74.0771 H         1 UNK         0.0747 
    114 H114      -75.1744   25.5745  -72.0123 H         1 UNK         0.0793 
    115 H115      -76.9132   25.4170  -71.8348 H         1 UNK         0.0793 
    116 H116      -75.8860   23.9943  -71.7373 H         1 UNK         0.0793 
    117 H117      -78.0231   23.8634  -73.2310 H         1 UNK         0.3047 
    118 H118      -78.9021   21.8765  -76.0145 H         1 UNK         0.0822 
    119 H119      -80.0065   21.0765  -73.9878 H         1 UNK         0.0807 
    120 H120      -79.4580   22.4559  -73.0485 H         1 UNK         0.0807 
    121 H121      -78.2988   21.2662  -73.6391 H         1 UNK         0.0807 
    122 H122      -80.5695   23.9459  -74.6651 H         1 UNK         0.2946 
    123 H123      -81.6187   25.3755  -77.5487 H         1 UNK         0.1144 
    124 H124      -84.0108   24.8257  -77.1528 H         1 UNK         0.0793 
    125 H125      -83.5547   23.4242  -76.1841 H         1 UNK         0.0793 
    126 H126      -83.1990   23.4640  -77.9061 H         1 UNK         0.0793 
    127 H127      -82.9062   25.5802  -75.0558 H         1 UNK         0.2896 
@<TRIPOS>BOND
     1    1    2 1    
     2    1   67 1    
     3    1   68 1    
     4    1   69 1    
     5    2    3 2    
     6    2    4 am   BACKBONE|DICT|INTERRES
     7    4    5 1    
     8    4   70 1    
     9    5    6 1    
    10    5   65 1    
    11    5   71 1    
    12    6    7 1    
    13    6   72 1    
    14    6   73 1    
    15    7    8 1    
    16    8    9 1    
    17    8   74 1    
    18    8   75 1    
    19    9   10 ar   
    20    9   14 ar   
    21   10   11 ar   
    22   10   76 1    
    23   11   12 ar   
    24   11   48 1    
    25   12   13 ar   
    26   12   77 1    
    27   13   14 ar   
    28   13   15 1    
    29   14   78 1    
    30   15   16 1    
    31   15   79 1    
    32   15   80 1    
    33   16   17 1    
    34   17   18 1    
    35   17   81 1    
    36   17   82 1    
    37   18   19 1    
    38   18   22 1    
    39   18   83 1    
    40   19   20 am   BACKBONE|DICT|INTERRES
    41   19   21 2    
    42   20   84 1    
    43   20   85 1    
    44   22   23 am   BACKBONE|DICT|INTERRES
    45   22   86 1    
    46   23   24 2    
    47   23   25 1    
    48   25   26 1    
    49   25   27 1    
    50   25   87 1    
    51   26   88 1    
    52   26   89 1    
    53   26   90 1    
    54   27   28 am   BACKBONE|DICT|INTERRES
    55   27   91 1    
    56   28   29 2    
    57   28   30 1    
    58   30   31 1    
    59   30   32 1    
    60   30   92 1    
    61   31   93 1    
    62   31   94 1    
    63   31   95 1    
    64   32   33 am   BACKBONE|DICT|INTERRES
    65   32   96 1    
    66   33   34 2    
    67   33   35 1    
    68   35   36 1    
    69   35   37 1    
    70   35   97 1    
    71   36   98 1    
    72   36   99 1    
    73   36  100 1    
    74   37   38 am   BACKBONE|DICT|INTERRES
    75   37  101 1    
    76   38   39 2    
    77   38   40 1    
    78   40   41 1    
    79   40   42 1    
    80   40  102 1    
    81   41  103 1    
    82   41  104 1    
    83   41  105 1    
    84   42   43 am   BACKBONE|DICT|INTERRES
    85   42  106 1    
    86   43   44 2    
    87   43   45 1    
    88   45   46 1    
    89   45   49 1    
    90   45  107 1    
    91   46   47 1    
    92   46  108 1    
    93   46  109 1    
    94   47   48 1    
    95   48  110 1    
    96   48  111 1    
    97   49   50 am   BACKBONE|DICT|INTERRES
    98   49  112 1    
    99   50   51 2    
   100   50   52 1    
   101   52   53 1    
   102   52   54 1    
   103   52  113 1    
   104   53  114 1    
   105   53  115 1    
   106   53  116 1    
   107   54   55 am   BACKBONE|DICT|INTERRES
   108   54  117 1    
   109   55   56 2    
   110   55   57 1    
   111   57   58 1    
   112   57   59 1    
   113   57  118 1    
   114   58  119 1    
   115   58  120 1    
   116   58  121 1    
   117   59   60 am   BACKBONE|DICT|INTERRES
   118   59  122 1    
   119   60   61 2    
   120   60   62 1    
   121   62   63 1    
   122   62   64 1    
   123   62  123 1    
   124   63  124 1    
   125   63  125 1    
   126   63  126 1    
   127   64   65 am   BACKBONE|DICT|INTERRES
   128   64  127 1    
   129   65   66 2    
@<TRIPOS>SUBSTRUCTURE
     1 UNK         1 GROUP             0       ****    0 ROOT    
