@<TRIPOS>MOLECULE
3R135
127   129    1
SMALL
USER_CHARGES


@<TRIPOS>ATOM
      1 CA        -84.2707   25.1500  -68.5376 C.3       0 UNK        -0.1998 
      2 C         -84.2563   26.0521  -69.7625 C.2       0 UNK         0.4909 
      3 O         -85.2491   26.1137  -70.4884 O.2       0 UNK        -0.5240 
      4 N         -83.1393   26.7550  -69.9951 N.am      1 UNK        -0.4739 
      5 CA        -82.9351   27.6481  -71.1438 C.3       1 UNK         0.0864 
      6 C6        -81.7144   28.5741  -70.9120 C.3       11 UNK        -0.0881 
      7 S7        -81.7901   30.1105  -71.8926 S.3       11 UNK        -0.2682 
      8 C8        -80.1647   30.8503  -71.5294 C.3       11 UNK         0.0289 
      9 C9        -79.0219   30.0140  -72.0873 C.ar      11 UNK        -0.0687 
     10 C10       -78.7619   30.0072  -73.4606 C.ar      11 UNK        -0.0823 
     11 C11       -77.7356   29.2162  -73.9851 C.ar      11 UNK        -0.0830 
     12 C12       -76.9618   28.4322  -73.1210 C.ar      11 UNK        -0.1021 
     13 C13       -77.2031   28.4425  -71.7443 C.ar      11 UNK        -0.0753 
     14 C14       -78.2334   29.2368  -71.2336 C.ar      11 UNK        -0.0933 
     15 C15       -76.3735   27.5809  -70.8038 C.3       11 UNK         0.0166 
     16 S16       -75.0785   28.5472  -69.9660 S.3       11 UNK        -0.2615 
     17 C17       -73.7850   28.6566  -71.2514 C.3       11 UNK        -0.0865 
     18 CA        -73.8102   29.9920  -72.0535 C.3       10 UNK         0.0862 
     19 C         -73.1515   31.1984  -71.3111 C.2       10 UNK         0.5551 
     20 N         -72.6168   32.1851  -72.0214 N.am      10 UNK        -0.7319 
     21 O         -73.1357   31.2615  -70.0845 O.2       10 UNK        -0.5018 
     22 N         -73.3416   29.8017  -73.4376 N.am      10 UNK        -0.4509 
     23 C         -72.1107   29.4123  -73.7965 C.2       10 UNK         0.4899 
     24 O         -71.1909   29.1876  -73.0068 O.2       10 UNK        -0.4839 
     25 CA        -71.8583   29.2789  -75.3080 C.3       9 UNK         0.0222 
     26 CB        -71.1009   30.5078  -75.8361 C.3       9 UNK        -0.1966 
     27 N         -71.1195   28.0628  -75.6655 N.am      9 UNK        -0.4218 
     28 C         -71.5139   26.8093  -75.4022 C.2       9 UNK         0.5020 
     29 O         -72.5340   26.5212  -74.7749 O.2       9 UNK        -0.5274 
     30 CA        -70.6290   25.6816  -75.9385 C.3       8 UNK         0.0270 
     31 CB        -69.7996   25.0480  -74.8058 C.3       8 UNK        -0.1976 
     32 N         -71.4814   24.6767  -76.5747 N.am      8 UNK        -0.4313 
     33 C         -71.0667   23.7934  -77.4930 C.2       8 UNK         0.5041 
     34 O         -69.9059   23.7256  -77.9001 O.2       8 UNK        -0.5577 
     35 CA        -72.1147   22.8308  -78.0699 C.3       7 UNK         0.0284 
     36 CB        -72.5591   21.8006  -77.0169 C.3       7 UNK        -0.1958 
     37 N         -73.2769   23.5676  -78.5643 N.am      7 UNK        -0.4454 
     38 C         -73.4932   23.8923  -79.8474 C.2       7 UNK         0.5089 
     39 O         -72.7618   23.5437  -80.7749 O.2       7 UNK        -0.5125 
     40 CA        -74.7348   24.7529  -80.1630 C.3       6 UNK         0.0408 
     41 CB        -75.9134   23.8592  -80.5800 C.3       6 UNK        -0.1791 
     42 N         -75.1528   25.6026  -79.0460 N.am      6 UNK        -0.4762 
     43 C         -74.4366   26.6272  -78.5571 C.2       6 UNK         0.5007 
     44 O         -73.4103   27.0515  -79.0883 O.2       6 UNK        -0.5032 
     45 CA        -74.9070   27.2602  -77.2304 C.3       5 UNK         0.0783 
     46 C46       -75.5585   28.6447  -77.4712 C.3       11 UNK        -0.0857 
     47 S47       -75.7711   29.5693  -75.9135 S.3       11 UNK        -0.2512 
     48 C48       -77.4972   29.1730  -75.4876 C.3       11 UNK         0.0225 
     49 N         -75.7684   26.3839  -76.4267 N.am      5 UNK        -0.4615 
     50 C         -75.4766   25.1590  -75.9675 C.2       4 UNK         0.5053 
     51 O         -74.4020   24.5917  -76.1618 O.2       4 UNK        -0.5105 
     52 CA        -76.5989   24.4113  -75.2258 C.3       4 UNK         0.0263 
     53 CB        -76.3690   24.4548  -73.7080 C.3       4 UNK        -0.1981 
     54 N         -77.9437   24.9167  -75.5267 N.am      4 UNK        -0.4224 
     55 C         -78.5461   24.8730  -76.7229 C.2       3 UNK         0.4895 
     56 O         -78.0189   24.3843  -77.7242 O.2       3 UNK        -0.5091 
     57 CA        -79.9496   25.5112  -76.8172 C.3       3 UNK         0.0250 
     58 CB        -80.6039   25.2899  -78.1942 C.3       3 UNK        -0.1996 
     59 N         -80.8752   25.0533  -75.7736 N.am      3 UNK        -0.4254 
     60 C         -80.8462   25.4212  -74.4858 C.2       2 UNK         0.5004 
     61 O         -79.9771   26.1542  -74.0071 O.2       2 UNK        -0.5226 
     62 CA        -81.9313   24.8207  -73.5759 C.3       2 UNK         0.0269 
     63 CB        -81.4991   23.4327  -73.0746 C.3       2 UNK        -0.1926 
     64 N         -82.2069   25.6749  -72.4189 N.am      2 UNK        -0.4687 
     65 C         -82.8168   26.8686  -72.4743 C.2       1 UNK         0.5165 
     66 O         -83.2995   27.3388  -73.5064 O.2       1 UNK        -0.5079 
     67 H67       -83.3340   25.1995  -67.9827 H         1 UNK         0.0900 
     68 H68       -85.0778   25.4420  -67.8663 H         1 UNK         0.0900 
     69 H69       -84.4334   24.1148  -68.8364 H         1 UNK         0.0900 
     70 H70       -82.3604   26.6690  -69.3573 H         1 UNK         0.2959 
     71 H71       -83.8284   28.2730  -71.2196 H         1 UNK         0.1079 
     72 H72       -80.7830   28.0438  -71.1189 H         1 UNK         0.0837 
     73 H73       -81.6637   28.8745  -69.8640 H         1 UNK         0.0837 
     74 H74       -80.1262   31.8499  -71.9646 H         1 UNK         0.0685 
     75 H75       -80.0606   30.9822  -70.4512 H         1 UNK         0.0685 
     76 H76       -79.3781   30.6030  -74.1202 H         1 UNK         0.1434 
     77 H77       -76.1683   27.8173  -73.5225 H         1 UNK         0.1329 
     78 H78       -78.4278   29.2392  -70.1697 H         1 UNK         0.1335 
     79 H79       -75.9270   26.7383  -71.3328 H         1 UNK         0.0680 
     80 H80       -77.0272   27.1458  -70.0462 H         1 UNK         0.0680 
     81 H81       -73.9071   27.8088  -71.9275 H         1 UNK         0.1032 
     82 H82       -72.8098   28.5094  -70.7839 H         1 UNK         0.1032 
     83 H83       -74.8548   30.2831  -72.1681 H         1 UNK         0.0461 
     84 H84       -72.6283   32.1537  -73.0278 H         1 UNK         0.3453 
     85 H85       -72.1966   32.9666  -71.5434 H         1 UNK         0.3453 
     86 H86       -74.0311   29.9720  -74.1581 H         1 UNK         0.2984 
     87 H87       -72.8195   29.2352  -75.8197 H         1 UNK         0.0554 
     88 H88       -71.6446   31.4272  -75.6147 H         1 UNK         0.0847 
     89 H89       -70.9738   30.4638  -76.9180 H         1 UNK         0.0847 
     90 H90       -70.1124   30.5978  -75.3834 H         1 UNK         0.0847 
     91 H91       -70.2464   28.1995  -76.1539 H         1 UNK         0.3141 
     92 H92       -69.9517   26.0944  -76.6895 H         1 UNK         0.0743 
     93 H93       -70.4392   24.5921  -74.0488 H         1 UNK         0.0784 
     94 H94       -69.1279   24.2777  -75.1848 H         1 UNK         0.0784 
     95 H95       -69.1841   25.7972  -74.3062 H         1 UNK         0.0784 
     96 H96       -72.4605   24.6956  -76.2904 H         1 UNK         0.3213 
     97 H97       -71.6465   22.2812  -78.8897 H         1 UNK         0.0855 
     98 H98       -73.0396   22.2696  -76.1578 H         1 UNK         0.0814 
     99 H99       -71.7047   21.2351  -76.6427 H         1 UNK         0.0814 
    100 H100      -73.2617   21.0829  -77.4403 H         1 UNK         0.0814 
    101 H101      -73.9012   23.9380  -77.8529 H         1 UNK         0.3105 
    102 H102      -74.4828   25.4013  -81.0047 H         1 UNK         0.0547 
    103 H103      -75.6453   23.2295  -81.4295 H         1 UNK         0.0837 
    104 H104      -76.2258   23.1991  -79.7696 H         1 UNK         0.0837 
    105 H105      -76.7772   24.4537  -80.8779 H         1 UNK         0.0837 
    106 H106      -75.9905   25.3192  -78.5520 H         1 UNK         0.3020 
    107 H107      -74.0009   27.4170  -76.6505 H         1 UNK         0.1245 
    108 H108      -76.5158   28.5476  -77.9869 H         1 UNK         0.0781 
    109 H109      -74.9275   29.2575  -78.1184 H         1 UNK         0.0781 
    110 H110      -77.7673   28.1804  -75.8448 H         1 UNK         0.0836 
    111 H111      -78.1519   29.8725  -76.0099 H         1 UNK         0.0836 
    112 H112      -76.6817   26.7478  -76.2104 H         1 UNK         0.3022 
    113 H113      -76.5556   23.3691  -75.5488 H         1 UNK         0.0747 
    114 H114      -77.0831   23.8217  -73.1812 H         1 UNK         0.0793 
    115 H115      -75.3696   24.0998  -73.4517 H         1 UNK         0.0793 
    116 H116      -76.4676   25.4661  -73.3162 H         1 UNK         0.0793 
    117 H117      -78.4619   25.3516  -74.7653 H         1 UNK         0.3047 
    118 H118      -79.8094   26.5871  -76.6925 H         1 UNK         0.0822 
    119 H119      -81.5660   25.7978  -78.2640 H         1 UNK         0.0807 
    120 H120      -80.7664   24.2307  -78.3979 H         1 UNK         0.0807 
    121 H121      -79.9764   25.6833  -78.9954 H         1 UNK         0.0807 
    122 H122      -81.5902   24.4053  -76.0727 H         1 UNK         0.2946 
    123 H123      -82.8537   24.7205  -74.1529 H         1 UNK         0.1144 
    124 H124      -81.3186   22.7518  -73.9075 H         1 UNK         0.0793 
    125 H125      -82.2686   22.9788  -72.4496 H         1 UNK         0.0793 
    126 H126      -80.5786   23.4834  -72.4911 H         1 UNK         0.0793 
    127 H127      -81.8327   25.3728  -71.5318 H         1 UNK         0.2896 
@<TRIPOS>BOND
     1    1    2 1    
     2    1   67 1    
     3    1   68 1    
     4    1   69 1    
     5    2    3 2    
     6    2    4 am   BACKBONE|DICT|INTERRES
     7    4    5 1    
     8    4   70 1    
     9    5    6 1    
    10    5   65 1    
    11    5   71 1    
    12    6    7 1    
    13    6   72 1    
    14    6   73 1    
    15    7    8 1    
    16    8    9 1    
    17    8   74 1    
    18    8   75 1    
    19    9   10 ar   
    20    9   14 ar   
    21   10   11 ar   
    22   10   76 1    
    23   11   12 ar   
    24   11   48 1    
    25   12   13 ar   
    26   12   77 1    
    27   13   14 ar   
    28   13   15 1    
    29   14   78 1    
    30   15   16 1    
    31   15   79 1    
    32   15   80 1    
    33   16   17 1    
    34   17   18 1    
    35   17   81 1    
    36   17   82 1    
    37   18   19 1    
    38   18   22 1    
    39   18   83 1    
    40   19   20 am   BACKBONE|DICT|INTERRES
    41   19   21 2    
    42   20   84 1    
    43   20   85 1    
    44   22   23 am   BACKBONE|DICT|INTERRES
    45   22   86 1    
    46   23   24 2    
    47   23   25 1    
    48   25   26 1    
    49   25   27 1    
    50   25   87 1    
    51   26   88 1    
    52   26   89 1    
    53   26   90 1    
    54   27   28 am   BACKBONE|DICT|INTERRES
    55   27   91 1    
    56   28   29 2    
    57   28   30 1    
    58   30   31 1    
    59   30   32 1    
    60   30   92 1    
    61   31   93 1    
    62   31   94 1    
    63   31   95 1    
    64   32   33 am   BACKBONE|DICT|INTERRES
    65   32   96 1    
    66   33   34 2    
    67   33   35 1    
    68   35   36 1    
    69   35   37 1    
    70   35   97 1    
    71   36   98 1    
    72   36   99 1    
    73   36  100 1    
    74   37   38 am   BACKBONE|DICT|INTERRES
    75   37  101 1    
    76   38   39 2    
    77   38   40 1    
    78   40   41 1    
    79   40   42 1    
    80   40  102 1    
    81   41  103 1    
    82   41  104 1    
    83   41  105 1    
    84   42   43 am   BACKBONE|DICT|INTERRES
    85   42  106 1    
    86   43   44 2    
    87   43   45 1    
    88   45   46 1    
    89   45   49 1    
    90   45  107 1    
    91   46   47 1    
    92   46  108 1    
    93   46  109 1    
    94   47   48 1    
    95   48  110 1    
    96   48  111 1    
    97   49   50 am   BACKBONE|DICT|INTERRES
    98   49  112 1    
    99   50   51 2    
   100   50   52 1    
   101   52   53 1    
   102   52   54 1    
   103   52  113 1    
   104   53  114 1    
   105   53  115 1    
   106   53  116 1    
   107   54   55 am   BACKBONE|DICT|INTERRES
   108   54  117 1    
   109   55   56 2    
   110   55   57 1    
   111   57   58 1    
   112   57   59 1    
   113   57  118 1    
   114   58  119 1    
   115   58  120 1    
   116   58  121 1    
   117   59   60 am   BACKBONE|DICT|INTERRES
   118   59  122 1    
   119   60   61 2    
   120   60   62 1    
   121   62   63 1    
   122   62   64 1    
   123   62  123 1    
   124   63  124 1    
   125   63  125 1    
   126   63  126 1    
   127   64   65 am   BACKBONE|DICT|INTERRES
   128   64  127 1    
   129   65   66 2    
@<TRIPOS>SUBSTRUCTURE
     1 UNK         1 GROUP             0       ****    0 ROOT    
