@<TRIPOS>MOLECULE
3R135
127   129    1
SMALL
USER_CHARGES


@<TRIPOS>ATOM
      1 CA        -83.0960   30.1810  -76.8111 C.3       0 UNK        -0.1998 
      2 C         -82.1187   29.0849  -77.2079 C.2       0 UNK         0.4909 
      3 O         -82.1172   28.6536  -78.3610 O.2       0 UNK        -0.5240 
      4 N         -81.2882   28.6309  -76.2600 N.am      1 UNK        -0.4739 
      5 CA        -80.2706   27.5886  -76.4645 C.3       1 UNK         0.0864 
      6 C6        -79.2180   27.5682  -75.3253 C.3       11 UNK        -0.0881 
      7 S7        -78.4508   29.1995  -75.0353 S.3       11 UNK        -0.2682 
      8 C8        -78.7473   29.4647  -73.2576 C.3       11 UNK         0.0289 
      9 C9        -77.6234   28.9137  -72.3863 C.ar      11 UNK        -0.0687 
     10 C10       -77.4464   27.5342  -72.2368 C.ar      11 UNK        -0.0823 
     11 C11       -76.4440   27.0293  -71.4020 C.ar      11 UNK        -0.0830 
     12 C12       -75.6295   27.9167  -70.6933 C.ar      11 UNK        -0.1021 
     13 C13       -75.7903   29.2975  -70.8363 C.ar      11 UNK        -0.0753 
     14 C14       -76.7825   29.7893  -71.6906 C.ar      11 UNK        -0.0933 
     15 C15       -74.9206   30.2604  -70.0408 C.3       11 UNK         0.0166 
     16 S16       -73.4408   30.7709  -70.9661 S.3       11 UNK        -0.2615 
     17 C17       -72.3157   29.3632  -70.6624 C.3       11 UNK        -0.0865 
     18 CA        -71.0081   29.4706  -71.4873 C.3       10 UNK         0.0862 
     19 C         -70.0219   28.3304  -71.1160 C.2       10 UNK         0.5551 
     20 N         -69.1732   28.5478  -70.1209 N.am      10 UNK        -0.7319 
     21 O         -70.0483   27.2427  -71.6890 O.2       10 UNK        -0.5018 
     22 N         -71.3099   29.5141  -72.9210 N.am      10 UNK        -0.4509 
     23 C         -70.4623   29.8374  -73.9038 C.2       10 UNK         0.4899 
     24 O         -69.2838   30.1467  -73.7257 O.2       10 UNK        -0.4839 
     25 CA        -71.0356   29.8327  -75.3339 C.3       9 UNK         0.0222 
     26 CB        -70.5784   28.5769  -76.0935 C.3       9 UNK        -0.1966 
     27 N         -72.5000   29.8926  -75.3537 N.am      9 UNK        -0.4218 
     28 C         -73.2446   30.9733  -75.0901 C.2       9 UNK         0.5020 
     29 O         -72.7732   32.0984  -74.9142 O.2       9 UNK        -0.5274 
     30 CA        -74.7685   30.7428  -75.0045 C.3       8 UNK         0.0270 
     31 CB        -75.5543   32.0353  -74.7157 C.3       8 UNK        -0.1976 
     32 N         -75.3203   30.1028  -76.2039 N.am      8 UNK        -0.4313 
     33 C         -75.1816   28.8103  -76.5214 C.2       8 UNK         0.5041 
     34 O         -74.4991   28.0172  -75.8650 O.2       8 UNK        -0.5577 
     35 CA        -75.8951   28.3288  -77.7890 C.3       7 UNK         0.0284 
     36 CB        -75.1362   28.7628  -79.0559 C.3       7 UNK        -0.1958 
     37 N         -75.9662   26.8752  -77.7275 N.am      7 UNK        -0.4454 
     38 C         -76.8647   26.0868  -78.3194 C.2       7 UNK         0.5089 
     39 O         -77.7362   26.5105  -79.0790 O.2       7 UNK        -0.5125 
     40 CA        -76.8064   24.5752  -78.0102 C.3       6 UNK         0.0408 
     41 CB        -76.0274   23.8179  -79.1026 C.3       6 UNK        -0.1791 
     42 N         -76.3250   24.2231  -76.6625 N.am      6 UNK        -0.4762 
     43 C         -75.0987   24.3774  -76.1325 C.2       6 UNK         0.5007 
     44 O         -74.1421   24.8376  -76.7548 O.2       6 UNK        -0.5032 
     45 CA        -74.9081   23.9993  -74.6473 C.3       5 UNK         0.0783 
     46 C46       -74.9864   25.2767  -73.7748 C.3       11 UNK        -0.0857 
     47 S47       -74.6917   24.9554  -72.0029 S.3       11 UNK        -0.2512 
     48 C48       -76.2496   25.5262  -71.2478 C.3       11 UNK         0.0225 
     49 N         -75.8484   22.9655  -74.2030 N.am      5 UNK        -0.4615 
     50 C         -75.8337   21.6888  -74.6080 C.2       4 UNK         0.5053 
     51 O         -74.9683   21.2182  -75.3466 O.2       4 UNK        -0.5105 
     52 CA        -76.9807   20.7794  -74.1222 C.3       4 UNK         0.0263 
     53 CB        -76.4960   19.8826  -72.9711 C.3       4 UNK        -0.1981 
     54 N         -78.2040   21.4785  -73.7010 N.am      4 UNK        -0.4224 
     55 C         -78.9333   22.3053  -74.4632 C.2       3 UNK         0.4895 
     56 O         -78.6229   22.6348  -75.6112 O.2       3 UNK        -0.5091 
     57 CA        -80.1907   22.8976  -73.8161 C.3       3 UNK         0.0250 
     58 CB        -79.8219   23.9033  -72.7074 C.3       3 UNK        -0.1996 
     59 N         -80.9625   23.5741  -74.8516 N.am      3 UNK        -0.4254 
     60 C         -82.2617   23.8808  -74.8150 C.2       2 UNK         0.5004 
     61 O         -83.0067   23.5915  -73.8766 O.2       2 UNK        -0.5226 
     62 CA        -82.7941   24.6904  -76.0147 C.3       2 UNK         0.0269 
     63 CB        -84.3132   24.9349  -75.9427 C.3       2 UNK        -0.1926 
     64 N         -82.1109   25.9840  -76.1090 N.am      2 UNK        -0.4687 
     65 C         -80.8855   26.1812  -76.6185 C.2       1 UNK         0.5165 
     66 O         -80.2268   25.2851  -77.1458 O.2       1 UNK        -0.5079 
     67 H67       -82.9826   30.4706  -75.7665 H         1 UNK         0.0900 
     68 H68       -82.9368   31.0658  -77.4268 H         1 UNK         0.0900 
     69 H69       -84.1209   29.8419  -76.9599 H         1 UNK         0.0900 
     70 H70       -81.3114   29.0432  -75.3383 H         1 UNK         0.2959 
     71 H71       -79.7505   27.8077  -77.4004 H         1 UNK         0.1079 
     72 H72       -78.4167   26.8641  -75.5597 H         1 UNK         0.0837 
     73 H73       -79.6759   27.2092  -74.4023 H         1 UNK         0.0837 
     74 H74       -79.6994   29.0245  -72.9587 H         1 UNK         0.0685 
     75 H75       -78.8538   30.5382  -73.0942 H         1 UNK         0.0685 
     76 H76       -78.0919   26.8520  -72.7683 H         1 UNK         0.1434 
     77 H77       -74.8684   27.5276  -70.0309 H         1 UNK         0.1329 
     78 H78       -76.9115   30.8578  -71.7966 H         1 UNK         0.1335 
     79 H79       -74.6269   29.8161  -69.0884 H         1 UNK         0.0680 
     80 H80       -75.4980   31.1518  -69.7912 H         1 UNK         0.0680 
     81 H81       -72.0934   29.3310  -69.5939 H         1 UNK         0.1032 
     82 H82       -72.8317   28.4312  -70.8986 H         1 UNK         0.1032 
     83 H83       -70.5276   30.4186  -71.2362 H         1 UNK         0.0461 
     84 H84       -69.1493   29.4333  -69.6391 H         1 UNK         0.3453 
     85 H85       -68.5342   27.8154  -69.8530 H         1 UNK         0.3453 
     86 H86       -72.2543   29.2684  -73.1739 H         1 UNK         0.2984 
     87 H87       -70.6456   30.7112  -75.8520 H         1 UNK         0.0554 
     88 H88       -69.4897   28.5120  -76.1220 H         1 UNK         0.0847 
     89 H89       -70.9288   28.5875  -77.1258 H         1 UNK         0.0847 
     90 H90       -70.9476   27.6642  -75.6235 H         1 UNK         0.0847 
     91 H91       -73.0054   29.0210  -75.5139 H         1 UNK         0.3141 
     92 H92       -74.9347   30.0712  -74.1585 H         1 UNK         0.0743 
     93 H93       -75.4414   32.7657  -75.5177 H         1 UNK         0.0784 
     94 H94       -76.6180   31.8319  -74.5901 H         1 UNK         0.0784 
     95 H95       -75.2074   32.5034  -73.7933 H         1 UNK         0.0784 
     96 H96       -75.8692   30.6942  -76.8111 H         1 UNK         0.3213 
     97 H97       -76.9071   28.7397  -77.7976 H         1 UNK         0.0855 
     98 H98       -74.1184   28.3704  -79.0673 H         1 UNK         0.0814 
     99 H99       -75.0692   29.8491  -79.1241 H         1 UNK         0.0814 
    100 H100      -75.6385   28.4141  -79.9584 H         1 UNK         0.0814 
    101 H101      -75.2665   26.4516  -77.1224 H         1 UNK         0.3105 
    102 H102      -77.8368   24.2180  -78.0434 H         1 UNK         0.0547 
    103 H103      -76.0350   22.7431  -78.9219 H         1 UNK         0.0837 
    104 H104      -74.9884   24.1420  -79.1642 H         1 UNK         0.0837 
    105 H105      -76.4750   23.9853  -80.0830 H         1 UNK         0.0837 
    106 H106      -77.0376   23.7989  -76.0753 H         1 UNK         0.3020 
    107 H107      -73.9000   23.5880  -74.5558 H         1 UNK         0.1245 
    108 H108      -75.9498   25.7707  -73.9094 H         1 UNK         0.0781 
    109 H109      -74.2348   26.0007  -74.0959 H         1 UNK         0.0781 
    110 H110      -76.2386   25.2748  -70.1863 H         1 UNK         0.0836 
    111 H111      -77.0846   24.9751  -71.6812 H         1 UNK         0.0836 
    112 H112      -76.5740   23.2592  -73.5684 H         1 UNK         0.3022 
    113 H113      -77.2513   20.1380  -74.9635 H         1 UNK         0.0747 
    114 H114      -77.2550   19.1533  -72.6871 H         1 UNK         0.0793 
    115 H115      -75.6055   19.3221  -73.2597 H         1 UNK         0.0793 
    116 H116      -76.2403   20.4662  -72.0857 H         1 UNK         0.0793 
    117 H117      -78.5298   21.2764  -72.7663 H         1 UNK         0.3047 
    118 H118      -80.7838   22.0804  -73.4001 H         1 UNK         0.0822 
    119 H119      -80.7127   24.3291  -72.2451 H         1 UNK         0.0807 
    120 H120      -79.2264   24.7276  -73.0999 H         1 UNK         0.0807 
    121 H121      -79.2475   23.4289  -71.9112 H         1 UNK         0.0807 
    122 H122      -80.4240   23.8227  -75.6784 H         1 UNK         0.2946 
    123 H123      -82.5900   24.1090  -76.9171 H         1 UNK         0.1144 
    124 H124      -84.6702   25.4693  -76.8233 H         1 UNK         0.0793 
    125 H125      -84.5893   25.5166  -75.0623 H         1 UNK         0.0793 
    126 H126      -84.8584   23.9912  -75.8951 H         1 UNK         0.0793 
    127 H127      -82.5701   26.7703  -75.6727 H         1 UNK         0.2896 
@<TRIPOS>BOND
     1    1    2 1    
     2    1   67 1    
     3    1   68 1    
     4    1   69 1    
     5    2    3 2    
     6    2    4 am   BACKBONE|DICT|INTERRES
     7    4    5 1    
     8    4   70 1    
     9    5    6 1    
    10    5   65 1    
    11    5   71 1    
    12    6    7 1    
    13    6   72 1    
    14    6   73 1    
    15    7    8 1    
    16    8    9 1    
    17    8   74 1    
    18    8   75 1    
    19    9   10 ar   
    20    9   14 ar   
    21   10   11 ar   
    22   10   76 1    
    23   11   12 ar   
    24   11   48 1    
    25   12   13 ar   
    26   12   77 1    
    27   13   14 ar   
    28   13   15 1    
    29   14   78 1    
    30   15   16 1    
    31   15   79 1    
    32   15   80 1    
    33   16   17 1    
    34   17   18 1    
    35   17   81 1    
    36   17   82 1    
    37   18   19 1    
    38   18   22 1    
    39   18   83 1    
    40   19   20 am   BACKBONE|DICT|INTERRES
    41   19   21 2    
    42   20   84 1    
    43   20   85 1    
    44   22   23 am   BACKBONE|DICT|INTERRES
    45   22   86 1    
    46   23   24 2    
    47   23   25 1    
    48   25   26 1    
    49   25   27 1    
    50   25   87 1    
    51   26   88 1    
    52   26   89 1    
    53   26   90 1    
    54   27   28 am   BACKBONE|DICT|INTERRES
    55   27   91 1    
    56   28   29 2    
    57   28   30 1    
    58   30   31 1    
    59   30   32 1    
    60   30   92 1    
    61   31   93 1    
    62   31   94 1    
    63   31   95 1    
    64   32   33 am   BACKBONE|DICT|INTERRES
    65   32   96 1    
    66   33   34 2    
    67   33   35 1    
    68   35   36 1    
    69   35   37 1    
    70   35   97 1    
    71   36   98 1    
    72   36   99 1    
    73   36  100 1    
    74   37   38 am   BACKBONE|DICT|INTERRES
    75   37  101 1    
    76   38   39 2    
    77   38   40 1    
    78   40   41 1    
    79   40   42 1    
    80   40  102 1    
    81   41  103 1    
    82   41  104 1    
    83   41  105 1    
    84   42   43 am   BACKBONE|DICT|INTERRES
    85   42  106 1    
    86   43   44 2    
    87   43   45 1    
    88   45   46 1    
    89   45   49 1    
    90   45  107 1    
    91   46   47 1    
    92   46  108 1    
    93   46  109 1    
    94   47   48 1    
    95   48  110 1    
    96   48  111 1    
    97   49   50 am   BACKBONE|DICT|INTERRES
    98   49  112 1    
    99   50   51 2    
   100   50   52 1    
   101   52   53 1    
   102   52   54 1    
   103   52  113 1    
   104   53  114 1    
   105   53  115 1    
   106   53  116 1    
   107   54   55 am   BACKBONE|DICT|INTERRES
   108   54  117 1    
   109   55   56 2    
   110   55   57 1    
   111   57   58 1    
   112   57   59 1    
   113   57  118 1    
   114   58  119 1    
   115   58  120 1    
   116   58  121 1    
   117   59   60 am   BACKBONE|DICT|INTERRES
   118   59  122 1    
   119   60   61 2    
   120   60   62 1    
   121   62   63 1    
   122   62   64 1    
   123   62  123 1    
   124   63  124 1    
   125   63  125 1    
   126   63  126 1    
   127   64   65 am   BACKBONE|DICT|INTERRES
   128   64  127 1    
   129   65   66 2    
@<TRIPOS>SUBSTRUCTURE
     1 UNK         1 GROUP             0       ****    0 ROOT    
