@<TRIPOS>MOLECULE
3R135
127   129    1
SMALL
USER_CHARGES


@<TRIPOS>ATOM
      1 CA        -80.9900   25.0153  -70.0387 C.3       0 UNK        -0.1998 
      2 C         -82.1214   25.4777  -70.9435 C.2       0 UNK         0.4909 
      3 O         -83.1443   24.7993  -71.0399 O.2       0 UNK        -0.5240 
      4 N         -81.9493   26.6322  -71.6009 N.am      1 UNK        -0.4739 
      5 CA        -82.9146   27.2151  -72.5425 C.3       1 UNK         0.0864 
      6 C6        -82.6375   28.7189  -72.8058 C.3       11 UNK        -0.0881 
      7 S7        -80.9410   29.0634  -73.3934 S.3       11 UNK        -0.2682 
      8 C8        -80.1630   29.7324  -71.8909 C.3       11 UNK         0.0289 
      9 C9        -78.6704   29.4525  -71.9039 C.ar      11 UNK        -0.0687 
     10 C10       -78.1817   28.2562  -71.3719 C.ar      11 UNK        -0.0823 
     11 C11       -76.8170   27.9532  -71.4275 C.ar      11 UNK        -0.0830 
     12 C12       -75.9387   28.8868  -71.9887 C.ar      11 UNK        -0.1021 
     13 C13       -76.4097   30.1044  -72.4914 C.ar      11 UNK        -0.0753 
     14 C14       -77.7799   30.3773  -72.4555 C.ar      11 UNK        -0.0933 
     15 C15       -75.4396   31.1378  -73.0454 C.3       11 UNK         0.0166 
     16 S16       -75.4255   31.1441  -74.8637 S.3       11 UNK        -0.2615 
     17 C17       -74.0738   32.3237  -75.2045 C.3       11 UNK        -0.0865 
     18 CA        -72.8034   31.6361  -75.7708 C.3       10 UNK         0.0862 
     19 C         -71.7403   32.7000  -76.1593 C.2       10 UNK         0.5551 
     20 N         -71.7406   33.1506  -77.4061 N.am      10 UNK        -0.7319 
     21 O         -70.9526   33.1519  -75.3300 O.2       10 UNK        -0.5018 
     22 N         -72.2845   30.6224  -74.8418 N.am      10 UNK        -0.4509 
     23 C         -71.2985   29.7550  -75.0996 C.2       10 UNK         0.4899 
     24 O         -70.6886   29.6975  -76.1685 O.2       10 UNK        -0.4839 
     25 CA        -70.9349   28.7640  -73.9852 C.3       9 UNK         0.0222 
     26 CB        -71.5578   29.0832  -72.6075 C.3       9 UNK        -0.1966 
     27 N         -71.3274   27.4230  -74.4115 N.am      9 UNK        -0.4218 
     28 C         -70.7277   26.2894  -74.0220 C.2       9 UNK         0.5020 
     29 O         -69.7526   26.2656  -73.2685 O.2       9 UNK        -0.5274 
     30 CA        -71.2963   24.9485  -74.5256 C.3       8 UNK         0.0270 
     31 CB        -71.8537   24.1200  -73.3545 C.3       8 UNK        -0.1976 
     32 N         -72.3417   25.1098  -75.5386 N.am      8 UNK        -0.4313 
     33 C         -72.1049   25.2316  -76.8529 C.2       8 UNK         0.5041 
     34 O         -70.9772   25.1796  -77.3458 O.2       8 UNK        -0.5577 
     35 CA        -73.3109   25.4507  -77.7881 C.3       7 UNK         0.0284 
     36 CB        -73.6890   24.1317  -78.4819 C.3       7 UNK        -0.1958 
     37 N         -74.5004   26.0067  -77.1364 N.am      7 UNK        -0.4454 
     38 C         -74.5604   27.1925  -76.5156 C.2       7 UNK         0.5089 
     39 O         -73.6111   27.9701  -76.4443 O.2       7 UNK        -0.5125 
     40 CA        -75.8716   27.5333  -75.7869 C.3       6 UNK         0.0408 
     41 CB        -76.8741   28.1955  -76.7423 C.3       6 UNK        -0.1791 
     42 N         -76.4998   26.3850  -75.1277 N.am      6 UNK        -0.4762 
     43 C         -75.9113   25.6258  -74.1901 C.2       6 UNK         0.5007 
     44 O         -74.7403   25.7573  -73.8345 O.2       6 UNK        -0.5032 
     45 CA        -76.7716   24.5050  -73.5850 C.3       5 UNK         0.0783 
     46 C46       -77.8740   25.0756  -72.6543 C.3       11 UNK        -0.0857 
     47 S47       -77.3658   25.1990  -70.9056 S.3       11 UNK        -0.2512 
     48 C48       -76.2511   26.6515  -70.8574 C.3       11 UNK         0.0225 
     49 N         -77.3299   23.6941  -74.6672 N.am      5 UNK        -0.4615 
     50 C         -76.6354   22.7810  -75.3613 C.2       4 UNK         0.5053 
     51 O         -75.4894   22.4336  -75.0772 O.2       4 UNK        -0.5105 
     52 CA        -77.3214   22.1598  -76.5926 C.3       4 UNK         0.0263 
     53 CB        -78.0047   20.8360  -76.2147 C.3       4 UNK        -0.1981 
     54 N         -78.3024   23.0465  -77.2242 N.am      4 UNK        -0.4224 
     55 C         -78.0111   24.2155  -77.8133 C.2       3 UNK         0.4895 
     56 O         -76.8686   24.6503  -77.9442 O.2       3 UNK        -0.5091 
     57 CA        -79.1973   25.0720  -78.2881 C.3       3 UNK         0.0250 
     58 CB        -79.5400   24.7493  -79.7509 C.3       3 UNK        -0.1996 
     59 N         -80.4005   24.9350  -77.4592 N.am      3 UNK        -0.4254 
     60 C         -80.4701   25.2076  -76.1486 C.2       2 UNK         0.5004 
     61 O         -79.5076   25.5740  -75.4660 O.2       2 UNK        -0.5226 
     62 CA        -81.8270   24.9615  -75.4837 C.3       2 UNK         0.0269 
     63 CB        -81.9828   23.4778  -75.1064 C.3       2 UNK        -0.1926 
     64 N         -81.9261   25.7733  -74.2758 N.am      2 UNK        -0.4687 
     65 C         -83.0267   26.4101  -73.8564 C.2       1 UNK         0.5165 
     66 O         -84.1059   26.3711  -74.4501 O.2       1 UNK        -0.5079 
     67 H67       -80.4750   24.1654  -70.4857 H         1 UNK         0.0900 
     68 H68       -81.3840   24.7047  -69.0715 H         1 UNK         0.0900 
     69 H69       -80.2599   25.8046  -69.8638 H         1 UNK         0.0900 
     70 H70       -81.0873   27.1457  -71.4989 H         1 UNK         0.2959 
     71 H71       -83.8985   27.1504  -72.0717 H         1 UNK         0.1079 
     72 H72       -83.3422   29.1137  -73.5405 H         1 UNK         0.0837 
     73 H73       -82.8276   29.2900  -71.8958 H         1 UNK         0.0837 
     74 H74       -80.3540   30.8050  -71.8308 H         1 UNK         0.0685 
     75 H75       -80.6103   29.2893  -70.9999 H         1 UNK         0.0685 
     76 H76       -78.8704   27.5534  -70.9277 H         1 UNK         0.1434 
     77 H77       -74.8810   28.6681  -72.0221 H         1 UNK         0.1329 
     78 H78       -78.1520   31.3087  -72.8602 H         1 UNK         0.1335 
     79 H79       -75.7174   32.1296  -72.6850 H         1 UNK         0.0680 
     80 H80       -74.4327   30.9464  -72.6728 H         1 UNK         0.0680 
     81 H81       -73.8364   32.8903  -74.3019 H         1 UNK         0.1032 
     82 H82       -74.4558   33.0540  -75.9206 H         1 UNK         0.1032 
     83 H83       -73.0893   31.1028  -76.6802 H         1 UNK         0.0461 
     84 H84       -72.3894   32.7923  -78.0898 H         1 UNK         0.3453 
     85 H85       -71.0696   33.8539  -77.6737 H         1 UNK         0.3453 
     86 H86       -72.7259   30.5910  -73.9374 H         1 UNK         0.2984 
     87 H87       -69.8482   28.8064  -73.8860 H         1 UNK         0.0554 
     88 H88       -71.1767   28.4077  -71.8414 H         1 UNK         0.0847 
     89 H89       -72.6426   28.9824  -72.6187 H         1 UNK         0.0847 
     90 H90       -71.3124   30.0958  -72.2841 H         1 UNK         0.0847 
     91 H91       -72.0880   27.3823  -75.0838 H         1 UNK         0.3141 
     92 H92       -70.4649   24.3882  -74.9588 H         1 UNK         0.0743 
     93 H93       -72.6199   24.6629  -72.8009 H         1 UNK         0.0784 
     94 H94       -72.2893   23.1821  -73.7001 H         1 UNK         0.0784 
     95 H95       -71.0633   23.8685  -72.6462 H         1 UNK         0.0784 
     96 H96       -73.2918   25.2037  -75.1917 H         1 UNK         0.3213 
     97 H97       -72.9963   26.1633  -78.5535 H         1 UNK         0.0855 
     98 H98       -74.0709   23.3989  -77.7695 H         1 UNK         0.0814 
     99 H99       -72.8262   23.6870  -78.9798 H         1 UNK         0.0814 
    100 H100      -74.4536   24.2890  -79.2429 H         1 UNK         0.0814 
    101 H101      -75.3542   25.4555  -77.2039 H         1 UNK         0.3105 
    102 H102      -75.6289   28.2470  -74.9986 H         1 UNK         0.0547 
    103 H103      -76.4527   29.1043  -77.1738 H         1 UNK         0.0837 
    104 H104      -77.1390   27.5358  -77.5679 H         1 UNK         0.0837 
    105 H105      -77.7905   28.4786  -76.2237 H         1 UNK         0.0837 
    106 H106      -77.4685   26.1947  -75.3615 H         1 UNK         0.3020 
    107 H107      -76.1124   23.8632  -72.9951 H         1 UNK         0.1245 
    108 H108      -78.7355   24.4058  -72.6586 H         1 UNK         0.0781 
    109 H109      -78.2656   26.0312  -73.0067 H         1 UNK         0.0781 
    110 H110      -75.3214   26.3901  -71.3631 H         1 UNK         0.0836 
    111 H111      -75.9797   26.8315  -69.8165 H         1 UNK         0.0836 
    112 H112      -78.2429   23.9758  -75.0026 H         1 UNK         0.3022 
    113 H113      -76.5421   21.9478  -77.3279 H         1 UNK         0.0747 
    114 H114      -78.4232   20.3404  -77.0909 H         1 UNK         0.0793 
    115 H115      -77.2917   20.1442  -75.7637 H         1 UNK         0.0793 
    116 H116      -78.8109   20.9875  -75.4955 H         1 UNK         0.0793 
    117 H117      -79.2710   22.7680  -77.1702 H         1 UNK         0.3047 
    118 H118      -78.8863   26.1164  -78.2352 H         1 UNK         0.0822 
    119 H119      -80.3104   25.4179  -80.1356 H         1 UNK         0.0807 
    120 H120      -79.8942   23.7243  -79.8680 H         1 UNK         0.0807 
    121 H121      -78.6643   24.8665  -80.3913 H         1 UNK         0.0807 
    122 H122      -81.2359   24.6229  -77.9341 H         1 UNK         0.2946 
    123 H123      -82.6107   25.2456  -76.1902 H         1 UNK         0.1144 
    124 H124      -81.2027   23.1533  -74.4162 H         1 UNK         0.0793 
    125 H125      -81.9302   22.8370  -75.9874 H         1 UNK         0.0793 
    126 H126      -82.9456   23.2916  -74.6301 H         1 UNK         0.0793 
    127 H127      -81.0540   25.9247  -73.7869 H         1 UNK         0.2896 
@<TRIPOS>BOND
     1    1    2 1    
     2    1   67 1    
     3    1   68 1    
     4    1   69 1    
     5    2    3 2    
     6    2    4 am   BACKBONE|DICT|INTERRES
     7    4    5 1    
     8    4   70 1    
     9    5    6 1    
    10    5   65 1    
    11    5   71 1    
    12    6    7 1    
    13    6   72 1    
    14    6   73 1    
    15    7    8 1    
    16    8    9 1    
    17    8   74 1    
    18    8   75 1    
    19    9   10 ar   
    20    9   14 ar   
    21   10   11 ar   
    22   10   76 1    
    23   11   12 ar   
    24   11   48 1    
    25   12   13 ar   
    26   12   77 1    
    27   13   14 ar   
    28   13   15 1    
    29   14   78 1    
    30   15   16 1    
    31   15   79 1    
    32   15   80 1    
    33   16   17 1    
    34   17   18 1    
    35   17   81 1    
    36   17   82 1    
    37   18   19 1    
    38   18   22 1    
    39   18   83 1    
    40   19   20 am   BACKBONE|DICT|INTERRES
    41   19   21 2    
    42   20   84 1    
    43   20   85 1    
    44   22   23 am   BACKBONE|DICT|INTERRES
    45   22   86 1    
    46   23   24 2    
    47   23   25 1    
    48   25   26 1    
    49   25   27 1    
    50   25   87 1    
    51   26   88 1    
    52   26   89 1    
    53   26   90 1    
    54   27   28 am   BACKBONE|DICT|INTERRES
    55   27   91 1    
    56   28   29 2    
    57   28   30 1    
    58   30   31 1    
    59   30   32 1    
    60   30   92 1    
    61   31   93 1    
    62   31   94 1    
    63   31   95 1    
    64   32   33 am   BACKBONE|DICT|INTERRES
    65   32   96 1    
    66   33   34 2    
    67   33   35 1    
    68   35   36 1    
    69   35   37 1    
    70   35   97 1    
    71   36   98 1    
    72   36   99 1    
    73   36  100 1    
    74   37   38 am   BACKBONE|DICT|INTERRES
    75   37  101 1    
    76   38   39 2    
    77   38   40 1    
    78   40   41 1    
    79   40   42 1    
    80   40  102 1    
    81   41  103 1    
    82   41  104 1    
    83   41  105 1    
    84   42   43 am   BACKBONE|DICT|INTERRES
    85   42  106 1    
    86   43   44 2    
    87   43   45 1    
    88   45   46 1    
    89   45   49 1    
    90   45  107 1    
    91   46   47 1    
    92   46  108 1    
    93   46  109 1    
    94   47   48 1    
    95   48  110 1    
    96   48  111 1    
    97   49   50 am   BACKBONE|DICT|INTERRES
    98   49  112 1    
    99   50   51 2    
   100   50   52 1    
   101   52   53 1    
   102   52   54 1    
   103   52  113 1    
   104   53  114 1    
   105   53  115 1    
   106   53  116 1    
   107   54   55 am   BACKBONE|DICT|INTERRES
   108   54  117 1    
   109   55   56 2    
   110   55   57 1    
   111   57   58 1    
   112   57   59 1    
   113   57  118 1    
   114   58  119 1    
   115   58  120 1    
   116   58  121 1    
   117   59   60 am   BACKBONE|DICT|INTERRES
   118   59  122 1    
   119   60   61 2    
   120   60   62 1    
   121   62   63 1    
   122   62   64 1    
   123   62  123 1    
   124   63  124 1    
   125   63  125 1    
   126   63  126 1    
   127   64   65 am   BACKBONE|DICT|INTERRES
   128   64  127 1    
   129   65   66 2    
@<TRIPOS>SUBSTRUCTURE
     1 UNK         1 GROUP             0       ****    0 ROOT    
