@<TRIPOS>MOLECULE
3R135
127   129    1
SMALL
USER_CHARGES


@<TRIPOS>ATOM
      1 CA        -75.1475   22.2093  -71.3220 C.3       0 UNK        -0.1998 
      2 C         -76.6504   22.2419  -71.0889 C.2       0 UNK         0.4909 
      3 O         -77.2561   21.2008  -70.8345 O.2       0 UNK        -0.5240 
      4 N         -77.2556   23.4331  -71.1690 N.am      1 UNK        -0.4739 
      5 CA        -78.6920   23.6669  -70.9686 C.3       1 UNK         0.0864 
      6 C6        -78.9778   25.1457  -70.6036 C.3       11 UNK        -0.0881 
      7 S7        -78.3189   26.3368  -71.8197 S.3       11 UNK        -0.2682 
      8 C8        -79.2093   27.8417  -71.3314 C.3       11 UNK         0.0289 
      9 C9        -78.6872   29.0347  -72.1119 C.ar      11 UNK        -0.0687 
     10 C10       -79.2748   29.3958  -73.3270 C.ar      11 UNK        -0.0823 
     11 C11       -78.7637   30.4634  -74.0724 C.ar      11 UNK        -0.0830 
     12 C12       -77.6602   31.1735  -73.5865 C.ar      11 UNK        -0.1021 
     13 C13       -77.0723   30.8303  -72.3645 C.ar      11 UNK        -0.0753 
     14 C14       -77.5979   29.7638  -71.6286 C.ar      11 UNK        -0.0933 
     15 C15       -75.8738   31.6128  -71.8415 C.3       11 UNK         0.0166 
     16 S16       -74.4473   30.5246  -71.5400 S.3       11 UNK        -0.2615 
     17 C17       -73.0524   31.6973  -71.6317 C.3       11 UNK        -0.0865 
     18 CA        -72.4986   31.8584  -73.0733 C.3       10 UNK         0.0862 
     19 C         -71.2968   32.8462  -73.1074 C.2       10 UNK         0.5551 
     20 N         -70.1122   32.4391  -73.5469 N.am      10 UNK        -0.7319 
     21 O         -71.4461   34.0066  -72.7326 O.2       10 UNK        -0.5018 
     22 N         -72.2491   30.5553  -73.7115 N.am      10 UNK        -0.4509 
     23 C         -72.2486   30.3249  -75.0271 C.2       10 UNK         0.4899 
     24 O         -72.3779   31.2082  -75.8750 O.2       10 UNK        -0.4839 
     25 CA        -72.1145   28.8640  -75.4911 C.3       9 UNK         0.0222 
     26 CB        -70.6390   28.4744  -75.7015 C.3       9 UNK        -0.1966 
     27 N         -72.8252   27.8808  -74.6591 N.am      9 UNK        -0.4218 
     28 C         -72.5557   27.4562  -73.4142 C.2       9 UNK         0.5020 
     29 O         -71.6483   27.9098  -72.7159 O.2       9 UNK        -0.5274 
     30 CA        -73.4447   26.3337  -72.8509 C.3       8 UNK         0.0270 
     31 CB        -74.6522   26.9168  -72.1016 C.3       8 UNK        -0.1976 
     32 N         -73.9189   25.4446  -73.9137 N.am      8 UNK        -0.4313 
     33 C         -73.3376   24.2861  -74.2556 C.2       8 UNK         0.5041 
     34 O         -72.4021   23.7771  -73.6376 O.2       8 UNK        -0.5577 
     35 CA        -73.8876   23.5700  -75.5041 C.3       7 UNK         0.0284 
     36 CB        -75.0226   22.6094  -75.1158 C.3       7 UNK        -0.1958 
     37 N         -74.3647   24.4992  -76.5319 N.am      7 UNK        -0.4454 
     38 C         -73.5782   25.3327  -77.2278 C.2       7 UNK         0.5089 
     39 O         -72.3497   25.3330  -77.1550 O.2       7 UNK        -0.5125 
     40 CA        -74.2709   26.3611  -78.1422 C.3       6 UNK         0.0408 
     41 CB        -74.2255   25.8870  -79.6032 C.3       6 UNK        -0.1791 
     42 N         -75.6599   26.6876  -77.7949 N.am      6 UNK        -0.4762 
     43 C         -76.1242   27.1419  -76.6224 C.2       6 UNK         0.5007 
     44 O         -75.4171   27.2633  -75.6217 O.2       6 UNK        -0.5032 
     45 CA        -77.6263   27.4860  -76.5322 C.3       5 UNK         0.0783 
     46 C46       -77.8635   28.9864  -76.8538 C.3       11 UNK        -0.0857 
     47 S47       -79.5951   29.4876  -76.5665 S.3       11 UNK        -0.2512 
     48 C48       -79.4113   30.8704  -75.3916 C.3       11 UNK         0.0225 
     49 N         -78.4883   26.5610  -77.2925 N.am      5 UNK        -0.4615 
     50 C         -78.6227   26.4524  -78.6251 C.2       4 UNK         0.5053 
     51 O         -77.9595   27.1094  -79.4277 O.2       4 UNK        -0.5105 
     52 CA        -79.6097   25.4060  -79.1792 C.3       4 UNK         0.0263 
     53 CB        -78.8391   24.2381  -79.8188 C.3       4 UNK        -0.1981 
     54 N         -80.5250   24.8680  -78.1734 N.am      4 UNK        -0.4224 
     55 C         -81.5582   25.5269  -77.6304 C.2       3 UNK         0.4895 
     56 O         -81.9386   26.6348  -78.0087 O.2       3 UNK        -0.5091 
     57 CA        -82.2800   24.8422  -76.4518 C.3       3 UNK         0.0250 
     58 CB        -83.6288   24.2638  -76.9109 C.3       3 UNK        -0.1996 
     59 N         -81.5022   23.7829  -75.7915 N.am      3 UNK        -0.4254 
     60 C         -80.3354   23.9653  -75.1573 C.2       2 UNK         0.5004 
     61 O         -79.7531   25.0507  -75.0925 O.2       2 UNK        -0.5226 
     62 CA        -79.6628   22.7102  -74.5821 C.3       2 UNK         0.0269 
     63 CB        -78.6595   22.1383  -75.5975 C.3       2 UNK        -0.1926 
     64 N         -78.9609   23.0270  -73.3388 N.am      2 UNK        -0.4687 
     65 C         -79.5648   23.1985  -72.1545 C.2       1 UNK         0.5165 
     66 O         -80.7681   23.0014  -71.9737 O.2       1 UNK        -0.5079 
     67 H67       -74.8940   21.4317  -72.0415 H         1 UNK         0.0900 
     68 H68       -74.7721   23.1595  -71.7017 H         1 UNK         0.0900 
     69 H69       -74.6298   21.9883  -70.3891 H         1 UNK         0.0900 
     70 H70       -76.7167   24.2616  -71.3784 H         1 UNK         0.2959 
     71 H71       -79.0052   23.0601  -70.1157 H         1 UNK         0.1079 
     72 H72       -78.5296   25.3738  -69.6353 H         1 UNK         0.0837 
     73 H73       -80.0501   25.3110  -70.4782 H         1 UNK         0.0837 
     74 H74       -80.2779   27.7077  -71.5070 H         1 UNK         0.0685 
     75 H75       -79.0851   28.0102  -70.2604 H         1 UNK         0.0685 
     76 H76       -80.1197   28.8341  -73.7020 H         1 UNK         0.1434 
     77 H77       -77.2604   31.9998  -74.1585 H         1 UNK         0.1329 
     78 H78       -77.1401   29.4845  -70.6894 H         1 UNK         0.1335 
     79 H79       -75.5886   32.3896  -72.5526 H         1 UNK         0.0680 
     80 H80       -76.1444   32.1198  -70.9145 H         1 UNK         0.0680 
     81 H81       -73.3671   32.6608  -71.2259 H         1 UNK         0.1032 
     82 H82       -72.2675   31.3322  -70.9666 H         1 UNK         0.1032 
     83 H83       -73.2837   32.3452  -73.6552 H         1 UNK         0.0461 
     84 H84       -69.9872   31.4893  -73.8581 H         1 UNK         0.3453 
     85 H85       -69.3405   33.0871  -73.5688 H         1 UNK         0.3453 
     86 H86       -72.1059   29.7631  -73.0927 H         1 UNK         0.2984 
     87 H87       -72.6021   28.8099  -76.4654 H         1 UNK         0.0554 
     88 H88       -70.0671   28.5155  -74.7743 H         1 UNK         0.0847 
     89 H89       -70.1562   29.1495  -76.4092 H         1 UNK         0.0847 
     90 H90       -70.5517   27.4654  -76.1054 H         1 UNK         0.0847 
     91 H91       -73.6843   27.5315  -75.0772 H         1 UNK         0.3141 
     92 H92       -72.8475   25.7681  -72.1325 H         1 UNK         0.0743 
     93 H93       -75.2835   27.5261  -72.7507 H         1 UNK         0.0784 
     94 H94       -75.2706   26.1278  -71.6757 H         1 UNK         0.0784 
     95 H95       -74.3266   27.5484  -71.2747 H         1 UNK         0.0784 
     96 H96       -74.6563   25.8128  -74.5058 H         1 UNK         0.3213 
     97 H97       -73.0738   22.9829  -75.9356 H         1 UNK         0.0855 
     98 H98       -75.8442   23.1311  -74.6243 H         1 UNK         0.0814 
     99 H99       -74.6615   21.8457  -74.4265 H         1 UNK         0.0814 
    100 H100      -75.4212   22.0893  -75.9871 H         1 UNK         0.0814 
    101 H101      -75.3615   24.5618  -76.6755 H         1 UNK         0.3105 
    102 H102      -73.6991   27.2877  -78.0692 H         1 UNK         0.0547 
    103 H103      -73.2030   25.6651  -79.9125 H         1 UNK         0.0837 
    104 H104      -74.8153   24.9814  -79.7513 H         1 UNK         0.0837 
    105 H105      -74.6076   26.6504  -80.2812 H         1 UNK         0.0837 
    106 H106      -76.3308   26.6716  -78.5588 H         1 UNK         0.3020 
    107 H107      -77.8983   27.3336  -75.4850 H         1 UNK         0.1245 
    108 H108      -77.6090   29.2123  -77.8903 H         1 UNK         0.0781 
    109 H109      -77.2056   29.6106  -76.2459 H         1 UNK         0.0781 
    110 H110      -80.3982   31.2849  -75.1825 H         1 UNK         0.0836 
    111 H111      -78.8426   31.6655  -75.8766 H         1 UNK         0.0836 
    112 H112      -79.0592   25.9621  -76.7027 H         1 UNK         0.3022 
    113 H113      -80.2010   25.8961  -79.9556 H         1 UNK         0.0747 
    114 H114      -79.5176   23.5170  -80.2751 H         1 UNK         0.0793 
    115 H115      -78.1724   24.5931  -80.6062 H         1 UNK         0.0793 
    116 H116      -78.2263   23.7086  -79.0880 H         1 UNK         0.0793 
    117 H117      -80.3071   23.9535  -77.8072 H         1 UNK         0.3047 
    118 H118      -82.4748   25.6172  -75.7072 H         1 UNK         0.0822 
    119 H119      -84.1968   23.8635  -76.0708 H         1 UNK         0.0807 
    120 H120      -83.4980   23.4644  -77.6414 H         1 UNK         0.0807 
    121 H121      -84.2458   25.0332  -77.3774 H         1 UNK         0.0807 
    122 H122      -81.9011   22.8549  -75.8187 H         1 UNK         0.2946 
    123 H123      -80.4235   21.9542  -74.3725 H         1 UNK         0.1144 
    124 H124      -78.1169   21.2868  -75.1861 H         1 UNK         0.0793 
    125 H125      -77.9291   22.8857  -75.9092 H         1 UNK         0.0793 
    126 H126      -79.1696   21.7904  -76.4966 H         1 UNK         0.0793 
    127 H127      -77.9825   23.2605  -73.4076 H         1 UNK         0.2896 
@<TRIPOS>BOND
     1    1    2 1    
     2    1   67 1    
     3    1   68 1    
     4    1   69 1    
     5    2    3 2    
     6    2    4 am   BACKBONE|DICT|INTERRES
     7    4    5 1    
     8    4   70 1    
     9    5    6 1    
    10    5   65 1    
    11    5   71 1    
    12    6    7 1    
    13    6   72 1    
    14    6   73 1    
    15    7    8 1    
    16    8    9 1    
    17    8   74 1    
    18    8   75 1    
    19    9   10 ar   
    20    9   14 ar   
    21   10   11 ar   
    22   10   76 1    
    23   11   12 ar   
    24   11   48 1    
    25   12   13 ar   
    26   12   77 1    
    27   13   14 ar   
    28   13   15 1    
    29   14   78 1    
    30   15   16 1    
    31   15   79 1    
    32   15   80 1    
    33   16   17 1    
    34   17   18 1    
    35   17   81 1    
    36   17   82 1    
    37   18   19 1    
    38   18   22 1    
    39   18   83 1    
    40   19   20 am   BACKBONE|DICT|INTERRES
    41   19   21 2    
    42   20   84 1    
    43   20   85 1    
    44   22   23 am   BACKBONE|DICT|INTERRES
    45   22   86 1    
    46   23   24 2    
    47   23   25 1    
    48   25   26 1    
    49   25   27 1    
    50   25   87 1    
    51   26   88 1    
    52   26   89 1    
    53   26   90 1    
    54   27   28 am   BACKBONE|DICT|INTERRES
    55   27   91 1    
    56   28   29 2    
    57   28   30 1    
    58   30   31 1    
    59   30   32 1    
    60   30   92 1    
    61   31   93 1    
    62   31   94 1    
    63   31   95 1    
    64   32   33 am   BACKBONE|DICT|INTERRES
    65   32   96 1    
    66   33   34 2    
    67   33   35 1    
    68   35   36 1    
    69   35   37 1    
    70   35   97 1    
    71   36   98 1    
    72   36   99 1    
    73   36  100 1    
    74   37   38 am   BACKBONE|DICT|INTERRES
    75   37  101 1    
    76   38   39 2    
    77   38   40 1    
    78   40   41 1    
    79   40   42 1    
    80   40  102 1    
    81   41  103 1    
    82   41  104 1    
    83   41  105 1    
    84   42   43 am   BACKBONE|DICT|INTERRES
    85   42  106 1    
    86   43   44 2    
    87   43   45 1    
    88   45   46 1    
    89   45   49 1    
    90   45  107 1    
    91   46   47 1    
    92   46  108 1    
    93   46  109 1    
    94   47   48 1    
    95   48  110 1    
    96   48  111 1    
    97   49   50 am   BACKBONE|DICT|INTERRES
    98   49  112 1    
    99   50   51 2    
   100   50   52 1    
   101   52   53 1    
   102   52   54 1    
   103   52  113 1    
   104   53  114 1    
   105   53  115 1    
   106   53  116 1    
   107   54   55 am   BACKBONE|DICT|INTERRES
   108   54  117 1    
   109   55   56 2    
   110   55   57 1    
   111   57   58 1    
   112   57   59 1    
   113   57  118 1    
   114   58  119 1    
   115   58  120 1    
   116   58  121 1    
   117   59   60 am   BACKBONE|DICT|INTERRES
   118   59  122 1    
   119   60   61 2    
   120   60   62 1    
   121   62   63 1    
   122   62   64 1    
   123   62  123 1    
   124   63  124 1    
   125   63  125 1    
   126   63  126 1    
   127   64   65 am   BACKBONE|DICT|INTERRES
   128   64  127 1    
   129   65   66 2    
@<TRIPOS>SUBSTRUCTURE
     1 UNK         1 GROUP             0       ****    0 ROOT    
