@<TRIPOS>MOLECULE
3R135
127   129    1
SMALL
USER_CHARGES


@<TRIPOS>ATOM
      1 CA        -78.3361   29.3185  -71.0343 C.3       0 UNK        -0.1998 
      2 C         -79.1394   29.7110  -72.2631 C.2       0 UNK         0.4909 
      3 O         -80.0489   30.5338  -72.1594 O.2       0 UNK        -0.5240 
      4 N         -78.8210   29.1224  -73.4249 N.am      1 UNK        -0.4739 
      5 CA        -79.5058   29.3787  -74.7030 C.3       1 UNK         0.0864 
      6 C6        -78.6733   28.9326  -75.9310 C.3       11 UNK        -0.0881 
      7 S7        -76.9847   29.6279  -75.9511 S.3       11 UNK        -0.2682 
      8 C8        -75.9747   28.1175  -75.8646 C.3       11 UNK         0.0289 
      9 C9        -75.9659   27.5176  -74.4695 C.ar      11 UNK        -0.0687 
     10 C10       -76.8741   26.5154  -74.1237 C.ar      11 UNK        -0.0823 
     11 C11       -76.8823   25.9790  -72.8332 C.ar      11 UNK        -0.0830 
     12 C12       -75.9734   26.4550  -71.8838 C.ar      11 UNK        -0.1021 
     13 C13       -75.0484   27.4473  -72.2251 C.ar      11 UNK        -0.0753 
     14 C14       -75.0395   27.9613  -73.5240 C.ar      11 UNK        -0.0933 
     15 C15       -74.0606   27.9651  -71.1914 C.3       11 UNK         0.0166 
     16 S16       -74.6308   29.5263  -70.4444 S.3       11 UNK        -0.2615 
     17 C17       -74.1210   30.7628  -71.6902 C.3       11 UNK        -0.0865 
     18 CA        -75.2811   31.2456  -72.6163 C.3       10 UNK         0.0862 
     19 C         -76.1440   32.3921  -72.0018 C.2       10 UNK         0.5551 
     20 N         -76.7373   33.2649  -72.8077 N.am      10 UNK        -0.7319 
     21 O         -76.2998   32.4874  -70.7874 O.2       10 UNK        -0.5018 
     22 N         -74.8193   31.5060  -73.9939 N.am      10 UNK        -0.4509 
     23 C         -73.8914   32.4116  -74.3355 C.2       10 UNK         0.4899 
     24 O         -73.2952   33.1177  -73.5201 O.2       10 UNK        -0.4839 
     25 CA        -73.5904   32.5622  -75.8411 C.3       9 UNK         0.0222 
     26 CB        -72.3631   33.4590  -76.1137 C.3       9 UNK        -0.1966 
     27 N         -73.4549   31.2928  -76.5694 N.am      9 UNK        -0.4218 
     28 C         -72.6014   30.2897  -76.3143 C.2       9 UNK         0.5020 
     29 O         -71.8562   30.2283  -75.3333 O.2       9 UNK        -0.5274 
     30 CA        -72.5399   29.1843  -77.3755 C.3       8 UNK         0.0270 
     31 CB        -71.5225   29.5437  -78.4724 C.3       8 UNK        -0.1976 
     32 N         -72.1452   27.9233  -76.7484 N.am      8 UNK        -0.4313 
     33 C         -72.7252   26.7414  -76.9807 C.2       8 UNK         0.5041 
     34 O         -73.6586   26.5819  -77.7743 O.2       8 UNK        -0.5577 
     35 CA        -72.1884   25.5359  -76.1941 C.3       7 UNK         0.0284 
     36 CB        -72.4236   25.6856  -74.6789 C.3       7 UNK        -0.1958 
     37 N         -72.8892   24.3466  -76.6646 N.am      7 UNK        -0.4454 
     38 C         -72.3813   23.1232  -76.8338 C.2       7 UNK         0.5089 
     39 O         -71.2137   22.8167  -76.5854 O.2       7 UNK        -0.5125 
     40 CA        -73.3869   22.0726  -77.3463 C.3       6 UNK         0.0408 
     41 CB        -72.7744   20.6663  -77.5221 C.3       6 UNK        -0.1791 
     42 N         -74.5915   22.0443  -76.5026 N.am      6 UNK        -0.4762 
     43 C         -74.6618   21.7001  -75.2048 C.2       6 UNK         0.5007 
     44 O         -73.7224   21.2110  -74.5759 O.2       6 UNK        -0.5032 
     45 CA        -75.9841   21.9816  -74.4541 C.3       5 UNK         0.0783 
     46 C46       -75.7563   23.1215  -73.4312 C.3       11 UNK        -0.0857 
     47 S47       -77.0811   23.2534  -72.1783 S.3       11 UNK        -0.2512 
     48 C48       -77.8676   24.8740  -72.4802 C.3       11 UNK         0.0225 
     49 N         -77.1110   22.2711  -75.3535 N.am      5 UNK        -0.4615 
     50 C         -77.7421   21.3586  -76.1025 C.2       4 UNK         0.5053 
     51 O         -77.4685   20.1576  -76.0834 O.2       4 UNK        -0.5105 
     52 CA        -78.8700   21.8818  -77.0122 C.3       4 UNK         0.0263 
     53 CB        -79.3487   20.8262  -78.0270 C.3       4 UNK        -0.1981 
     54 N         -80.0146   22.3302  -76.2192 N.am      4 UNK        -0.4224 
     55 C         -80.1152   23.5232  -75.6225 C.2       3 UNK         0.4895 
     56 O         -79.2605   24.4093  -75.7093 O.2       3 UNK        -0.5091 
     57 CA        -81.3615   23.7406  -74.7581 C.3       3 UNK         0.0250 
     58 CB        -81.2936   22.8967  -73.4686 C.3       3 UNK        -0.1996 
     59 N         -81.4879   25.1571  -74.4186 N.am      3 UNK        -0.4254 
     60 C         -82.6281   25.7624  -74.0637 C.2       2 UNK         0.5004 
     61 O         -83.7151   25.1837  -74.0228 O.2       2 UNK        -0.5226 
     62 CA        -82.5681   27.2475  -73.6655 C.3       2 UNK         0.0269 
     63 CB        -82.9804   27.4214  -72.1926 C.3       2 UNK        -0.1926 
     64 N         -81.2404   27.8447  -73.8409 N.am      2 UNK        -0.4687 
     65 C         -80.9235   28.7625  -74.7656 C.2       1 UNK         0.5165 
     66 O         -81.7008   29.1354  -75.6455 O.2       1 UNK        -0.5079 
     67 H67       -77.9720   30.2074  -70.5201 H         1 UNK         0.0900 
     68 H68       -77.4751   28.7067  -71.2937 H         1 UNK         0.0900 
     69 H69       -78.9590   28.7545  -70.3409 H         1 UNK         0.0900 
     70 H70       -78.0416   28.4787  -73.4671 H         1 UNK         0.2959 
     71 H71       -79.6438   30.4596  -74.7822 H         1 UNK         0.1079 
     72 H72       -78.6318   27.8450  -75.9964 H         1 UNK         0.0837 
     73 H73       -79.1637   29.2591  -76.8504 H         1 UNK         0.0837 
     74 H74       -74.9583   28.3797  -76.1429 H         1 UNK         0.0685 
     75 H75       -76.3147   27.3899  -76.6033 H         1 UNK         0.0685 
     76 H76       -77.5698   26.1463  -74.8635 H         1 UNK         0.1434 
     77 H77       -75.9813   26.0445  -70.8832 H         1 UNK         0.1329 
     78 H78       -74.3189   28.7194  -73.7960 H         1 UNK         0.1335 
     79 H79       -73.9348   27.2280  -70.3969 H         1 UNK         0.0680 
     80 H80       -73.0741   28.0941  -71.6392 H         1 UNK         0.0680 
     81 H81       -73.6634   31.6092  -71.1748 H         1 UNK         0.1032 
     82 H82       -73.3141   30.3321  -72.2845 H         1 UNK         0.1032 
     83 H83       -75.9838   30.4203  -72.7260 H         1 UNK         0.0461 
     84 H84       -77.2998   34.0002  -72.4098 H         1 UNK         0.3453 
     85 H85       -76.6285   33.1959  -73.8064 H         1 UNK         0.3453 
     86 H86       -75.2896   30.9877  -74.7240 H         1 UNK         0.2984 
     87 H87       -74.4600   33.0637  -76.2682 H         1 UNK         0.0554 
     88 H88       -72.1983   33.5940  -77.1826 H         1 UNK         0.0847 
     89 H89       -71.4532   33.0372  -75.6851 H         1 UNK         0.0847 
     90 H90       -72.4968   34.4517  -75.6819 H         1 UNK         0.0847 
     91 H91       -74.0322   31.2152  -77.3960 H         1 UNK         0.3141 
     92 H92       -73.5268   29.0926  -77.8338 H         1 UNK         0.0743 
     93 H93       -71.7874   30.4811  -78.9635 H         1 UNK         0.0784 
     94 H94       -70.5164   29.6600  -78.0670 H         1 UNK         0.0784 
     95 H95       -71.4853   28.7740  -79.2437 H         1 UNK         0.0784 
     96 H96       -71.4388   28.0093  -76.0285 H         1 UNK         0.3213 
     97 H97       -71.1191   25.4476  -76.3985 H         1 UNK         0.0855 
     98 H98       -73.4862   25.7515  -74.4436 H         1 UNK         0.0814 
     99 H99       -71.9422   26.5792  -74.2805 H         1 UNK         0.0814 
    100 H100      -72.0194   24.8327  -74.1333 H         1 UNK         0.0814 
    101 H101      -73.8259   24.5378  -76.9970 H         1 UNK         0.3105 
    102 H102      -73.7102   22.4096  -78.3324 H         1 UNK         0.0547 
    103 H103      -72.3565   20.2788  -76.5929 H         1 UNK         0.0837 
    104 H104      -73.5160   19.9524  -77.8800 H         1 UNK         0.0837 
    105 H105      -71.9648   20.6869  -78.2524 H         1 UNK         0.0837 
    106 H106      -75.4263   22.4313  -76.9189 H         1 UNK         0.3020 
    107 H107      -76.2191   21.0688  -73.9012 H         1 UNK         0.1245 
    108 H108      -75.6001   24.0619  -73.9573 H         1 UNK         0.0781 
    109 H109      -74.8371   22.9549  -72.8655 H         1 UNK         0.0781 
    110 H110      -78.4239   25.1633  -71.5876 H         1 UNK         0.0836 
    111 H111      -78.6105   24.7587  -73.2661 H         1 UNK         0.0836 
    112 H112      -77.4431   23.2276  -75.3821 H         1 UNK         0.3022 
    113 H113      -78.4716   22.7265  -77.5789 H         1 UNK         0.0747 
    114 H114      -80.1024   21.2366  -78.6993 H         1 UNK         0.0793 
    115 H115      -78.5212   20.4765  -78.6459 H         1 UNK         0.0793 
    116 H116      -79.7789   19.9534  -77.5341 H         1 UNK         0.0793 
    117 H117      -80.7440   21.6485  -76.0654 H         1 UNK         0.3047 
    118 H118      -82.2298   23.4374  -75.3474 H         1 UNK         0.0822 
    119 H119      -81.2083   21.8327  -73.6920 H         1 UNK         0.0807 
    120 H120      -82.1914   23.0222  -72.8632 H         1 UNK         0.0807 
    121 H121      -80.4369   23.1685  -72.8515 H         1 UNK         0.0807 
    122 H122      -80.6402   25.6985  -74.5231 H         1 UNK         0.2946 
    123 H123      -83.3030   27.7665  -74.2853 H         1 UNK         0.1144 
    124 H124      -83.9858   27.0361  -72.0167 H         1 UNK         0.0793 
    125 H125      -82.9847   28.4731  -71.9048 H         1 UNK         0.0793 
    126 H126      -82.3055   26.8923  -71.5185 H         1 UNK         0.0793 
    127 H127      -80.5408   27.6096  -73.1518 H         1 UNK         0.2896 
@<TRIPOS>BOND
     1    1    2 1    
     2    1   67 1    
     3    1   68 1    
     4    1   69 1    
     5    2    3 2    
     6    2    4 am   BACKBONE|DICT|INTERRES
     7    4    5 1    
     8    4   70 1    
     9    5    6 1    
    10    5   65 1    
    11    5   71 1    
    12    6    7 1    
    13    6   72 1    
    14    6   73 1    
    15    7    8 1    
    16    8    9 1    
    17    8   74 1    
    18    8   75 1    
    19    9   10 ar   
    20    9   14 ar   
    21   10   11 ar   
    22   10   76 1    
    23   11   12 ar   
    24   11   48 1    
    25   12   13 ar   
    26   12   77 1    
    27   13   14 ar   
    28   13   15 1    
    29   14   78 1    
    30   15   16 1    
    31   15   79 1    
    32   15   80 1    
    33   16   17 1    
    34   17   18 1    
    35   17   81 1    
    36   17   82 1    
    37   18   19 1    
    38   18   22 1    
    39   18   83 1    
    40   19   20 am   BACKBONE|DICT|INTERRES
    41   19   21 2    
    42   20   84 1    
    43   20   85 1    
    44   22   23 am   BACKBONE|DICT|INTERRES
    45   22   86 1    
    46   23   24 2    
    47   23   25 1    
    48   25   26 1    
    49   25   27 1    
    50   25   87 1    
    51   26   88 1    
    52   26   89 1    
    53   26   90 1    
    54   27   28 am   BACKBONE|DICT|INTERRES
    55   27   91 1    
    56   28   29 2    
    57   28   30 1    
    58   30   31 1    
    59   30   32 1    
    60   30   92 1    
    61   31   93 1    
    62   31   94 1    
    63   31   95 1    
    64   32   33 am   BACKBONE|DICT|INTERRES
    65   32   96 1    
    66   33   34 2    
    67   33   35 1    
    68   35   36 1    
    69   35   37 1    
    70   35   97 1    
    71   36   98 1    
    72   36   99 1    
    73   36  100 1    
    74   37   38 am   BACKBONE|DICT|INTERRES
    75   37  101 1    
    76   38   39 2    
    77   38   40 1    
    78   40   41 1    
    79   40   42 1    
    80   40  102 1    
    81   41  103 1    
    82   41  104 1    
    83   41  105 1    
    84   42   43 am   BACKBONE|DICT|INTERRES
    85   42  106 1    
    86   43   44 2    
    87   43   45 1    
    88   45   46 1    
    89   45   49 1    
    90   45  107 1    
    91   46   47 1    
    92   46  108 1    
    93   46  109 1    
    94   47   48 1    
    95   48  110 1    
    96   48  111 1    
    97   49   50 am   BACKBONE|DICT|INTERRES
    98   49  112 1    
    99   50   51 2    
   100   50   52 1    
   101   52   53 1    
   102   52   54 1    
   103   52  113 1    
   104   53  114 1    
   105   53  115 1    
   106   53  116 1    
   107   54   55 am   BACKBONE|DICT|INTERRES
   108   54  117 1    
   109   55   56 2    
   110   55   57 1    
   111   57   58 1    
   112   57   59 1    
   113   57  118 1    
   114   58  119 1    
   115   58  120 1    
   116   58  121 1    
   117   59   60 am   BACKBONE|DICT|INTERRES
   118   59  122 1    
   119   60   61 2    
   120   60   62 1    
   121   62   63 1    
   122   62   64 1    
   123   62  123 1    
   124   63  124 1    
   125   63  125 1    
   126   63  126 1    
   127   64   65 am   BACKBONE|DICT|INTERRES
   128   64  127 1    
   129   65   66 2    
@<TRIPOS>SUBSTRUCTURE
     1 UNK         1 GROUP             0       ****    0 ROOT    
