@<TRIPOS>MOLECULE
3R135
127   129    1
SMALL
USER_CHARGES


@<TRIPOS>ATOM
      1 CA        -78.0377   21.8233  -76.1084 C.3       0 UNK        -0.1998 
      2 C         -78.6097   22.1807  -74.7460 C.2       0 UNK         0.4909 
      3 O         -78.9377   21.2871  -73.9651 O.2       0 UNK        -0.5240 
      4 N         -78.7711   23.4787  -74.4631 N.am      1 UNK        -0.4739 
      5 CA        -79.3413   24.0269  -73.2234 C.3       1 UNK         0.0864 
      6 C6        -78.8576   25.4787  -72.9839 C.3       11 UNK        -0.0881 
      7 S7        -77.0570   25.5725  -72.6886 S.3       11 UNK        -0.2682 
      8 C8        -76.9952   26.4497  -71.0882 C.3       11 UNK         0.0289 
      9 C9        -76.9003   27.9659  -71.2405 C.ar      11 UNK        -0.0687 
     10 C10       -77.7907   28.6752  -72.0546 C.ar      11 UNK        -0.0823 
     11 C11       -77.6664   30.0598  -72.2217 C.ar      11 UNK        -0.0830 
     12 C12       -76.6645   30.7422  -71.5231 C.ar      11 UNK        -0.1021 
     13 C13       -75.7926   30.0535  -70.6755 C.ar      11 UNK        -0.0753 
     14 C14       -75.9140   28.6683  -70.5427 C.ar      11 UNK        -0.0933 
     15 C15       -74.7317   30.7963  -69.8781 C.3       11 UNK         0.0166 
     16 S16       -73.0931   30.6681  -70.6547 S.3       11 UNK        -0.2615 
     17 C17       -73.0790   32.1493  -71.7249 C.3       11 UNK        -0.0865 
     18 CA        -72.0105   32.0970  -72.8480 C.3       10 UNK         0.0862 
     19 C         -70.5566   32.1032  -72.2831 C.2       10 UNK         0.5551 
     20 N         -69.7745   31.0399  -72.4401 N.am      10 UNK        -0.7319 
     21 O         -70.1311   33.0989  -71.7023 O.2       10 UNK        -0.5018 
     22 N         -72.2967   31.0202  -73.8050 N.am      10 UNK        -0.4509 
     23 C         -71.7636   30.9225  -75.0297 C.2       10 UNK         0.4899 
     24 O         -71.0762   31.8063  -75.5438 O.2       10 UNK        -0.4839 
     25 CA        -72.0463   29.6263  -75.8156 C.3       9 UNK         0.0222 
     26 CB        -70.8776   29.2371  -76.7447 C.3       9 UNK        -0.1966 
     27 N         -72.4397   28.4858  -74.9777 N.am      9 UNK        -0.4218 
     28 C         -71.7357   27.8909  -74.0005 C.2       9 UNK         0.5020 
     29 O         -70.6242   28.2679  -73.6256 O.2       9 UNK        -0.5274 
     30 CA        -72.3935   26.6830  -73.3143 C.3       8 UNK         0.0270 
     31 CB        -73.3200   27.1539  -72.1848 C.3       8 UNK        -0.1976 
     32 N         -73.1715   25.8915  -74.2692 N.am      8 UNK        -0.4313 
     33 C         -72.7740   24.7321  -74.8096 C.2       8 UNK         0.5041 
     34 O         -71.7459   24.1365  -74.4842 O.2       8 UNK        -0.5577 
     35 CA        -73.6623   24.1397  -75.9211 C.3       7 UNK         0.0284 
     36 CB        -74.7326   23.2129  -75.3262 C.3       7 UNK        -0.1958 
     37 N         -74.3110   25.1634  -76.7449 N.am      7 UNK        -0.4454 
     38 C         -73.6590   26.0231  -77.5407 C.2       7 UNK         0.5089 
     39 O         -72.4538   25.9495  -77.7785 O.2       7 UNK        -0.5125 
     40 CA        -74.4696   27.1795  -78.1598 C.3       6 UNK         0.0408 
     41 CB        -74.7108   26.9184  -79.6552 C.3       6 UNK        -0.1791 
     42 N         -75.7582   27.4724  -77.5182 N.am      6 UNK        -0.4762 
     43 C         -75.9740   27.7764  -76.2283 C.2       6 UNK         0.5007 
     44 O         -75.0820   27.7927  -75.3802 O.2       6 UNK        -0.5032 
     45 CA        -77.4208   28.0997  -75.8018 C.3       5 UNK         0.0783 
     46 C46       -77.5568   29.6049  -75.4632 C.3       11 UNK        -0.0857 
     47 S47       -79.1456   29.9644  -74.6408 S.3       11 UNK        -0.2512 
     48 C48       -78.6141   30.8459  -73.1285 C.3       11 UNK         0.0225 
     49 N         -78.4155   27.6747  -76.7985 N.am      5 UNK        -0.4615 
     50 C         -78.7439   26.4067  -77.0745 C.2       4 UNK         0.5053 
     51 O         -78.2751   25.4296  -76.4858 O.2       4 UNK        -0.5105 
     52 CA        -79.6809   26.2080  -78.2767 C.3       4 UNK         0.0263 
     53 CB        -78.8621   26.1684  -79.5784 C.3       4 UNK        -0.1981 
     54 N         -80.4576   24.9724  -78.1747 N.am      4 UNK        -0.4224 
     55 C         -81.5343   24.8111  -77.3954 C.2       3 UNK         0.4895 
     56 O         -82.0024   25.7082  -76.6929 O.2       3 UNK        -0.5091 
     57 CA        -82.2171   23.4306  -77.3995 C.3       3 UNK         0.0250 
     58 CB        -81.5864   22.4092  -78.3698 C.3       3 UNK        -0.1996 
     59 N         -82.1611   22.8945  -76.0441 N.am      3 UNK        -0.4254 
     60 C         -83.1746   22.8459  -75.1694 C.2       2 UNK         0.5004 
     61 O         -84.3444   23.1138  -75.4465 O.2       2 UNK        -0.5226 
     62 CA        -82.8112   22.4345  -73.7286 C.3       2 UNK         0.0269 
     63 CB        -83.1002   20.9418  -73.5027 C.3       2 UNK        -0.1926 
     64 N         -81.4042   22.7059  -73.4117 N.am      2 UNK        -0.4687 
     65 C         -80.8841   23.9306  -73.2503 C.2       1 UNK         0.5165 
     66 O         -81.5748   24.9485  -73.1786 O.2       1 UNK        -0.5079 
     67 H67       -77.1489   21.2049  -75.9892 H         1 UNK         0.0900 
     68 H68       -77.7661   22.7095  -76.6822 H         1 UNK         0.0900 
     69 H69       -78.7671   21.2544  -76.6835 H         1 UNK         0.0900 
     70 H70       -78.5105   24.1756  -75.1598 H         1 UNK         0.2959 
     71 H71       -79.0047   23.4183  -72.3809 H         1 UNK         0.1079 
     72 H72       -79.1109   26.1066  -73.8392 H         1 UNK         0.0837 
     73 H73       -79.3807   25.9134  -72.1305 H         1 UNK         0.0837 
     74 H74       -76.1247   26.0747  -70.5480 H         1 UNK         0.0685 
     75 H75       -77.8584   26.1954  -70.4725 H         1 UNK         0.0685 
     76 H76       -78.5745   28.1472  -72.5750 H         1 UNK         0.1434 
     77 H77       -76.5699   31.8144  -71.6284 H         1 UNK         0.1329 
     78 H78       -75.2301   28.1370  -69.8948 H         1 UNK         0.1335 
     79 H79       -75.0037   31.8449  -69.7465 H         1 UNK         0.0680 
     80 H80       -74.6742   30.3723  -68.8745 H         1 UNK         0.0680 
     81 H81       -72.9267   33.0298  -71.0977 H         1 UNK         0.1032 
     82 H82       -74.0667   32.2731  -72.1715 H         1 UNK         0.1032 
     83 H83       -72.1049   33.0320  -73.4039 H         1 UNK         0.0461 
     84 H84       -68.8363   31.0585  -72.0742 H         1 UNK         0.3453 
     85 H85       -70.1216   30.2060  -72.8993 H         1 UNK         0.3453 
     86 H86       -72.8339   30.2448  -73.4467 H         1 UNK         0.2984 
     87 H87       -72.9101   29.8428  -76.4455 H         1 UNK         0.0554 
     88 H88       -71.1016   28.3306  -77.3066 H         1 UNK         0.0847 
     89 H89       -69.9577   29.0651  -76.1849 H         1 UNK         0.0847 
     90 H90       -70.6733   30.0234  -77.4722 H         1 UNK         0.0847 
     91 H91       -73.3882   28.1510  -75.1435 H         1 UNK         0.3141 
     92 H92       -71.6006   26.0755  -72.8730 H         1 UNK         0.0743 
     93 H93       -74.1224   27.7895  -72.5621 H         1 UNK         0.0784 
     94 H94       -73.7781   26.3089  -71.6709 H         1 UNK         0.0784 
     95 H95       -72.7680   27.7272  -71.4392 H         1 UNK         0.0784 
     96 H96       -74.0255   26.3177  -74.6150 H         1 UNK         0.3213 
     97 H97       -73.0177   23.5441  -76.5713 H         1 UNK         0.0855 
     98 H98       -75.4587   23.7607  -74.7238 H         1 UNK         0.0814 
     99 H99       -74.2820   22.4536  -74.6854 H         1 UNK         0.0814 
    100 H100      -75.2704   22.6902  -76.1154 H         1 UNK         0.0814 
    101 H101      -75.3059   25.2906  -76.6241 H         1 UNK         0.3105 
    102 H102      -73.8559   28.0775  -78.0672 H         1 UNK         0.0547 
    103 H103      -73.7711   26.7299  -80.1767 H         1 UNK         0.0837 
    104 H104      -75.3508   26.0497  -79.8148 H         1 UNK         0.0837 
    105 H105      -75.1783   27.7756  -80.1400 H         1 UNK         0.0837 
    106 H106      -76.5615   27.4803  -78.1284 H         1 UNK         0.3020 
    107 H107      -77.5906   27.5289  -74.8884 H         1 UNK         0.1245 
    108 H108      -77.4845   30.2147  -76.3656 H         1 UNK         0.0781 
    109 H109      -76.7408   29.9314  -74.8151 H         1 UNK         0.0781 
    110 H110      -79.5010   31.1123  -72.5524 H         1 UNK         0.0836 
    111 H111      -78.1514   31.7865  -73.4317 H         1 UNK         0.0836 
    112 H112      -78.8587   28.4182  -77.3191 H         1 UNK         0.3022 
    113 H113      -80.3745   27.0506  -78.3254 H         1 UNK         0.0747 
    114 H114      -79.5062   26.0319  -80.4475 H         1 UNK         0.0793 
    115 H115      -78.3158   27.1000  -79.7309 H         1 UNK         0.0793 
    116 H116      -78.1316   25.3579  -79.5728 H         1 UNK         0.0793 
    117 H117      -80.1158   24.1798  -78.6974 H         1 UNK         0.3047 
    118 H118      -83.2541   23.5893  -77.7030 H         1 UNK         0.0822 
    119 H119      -81.6364   22.7598  -79.4018 H         1 UNK         0.0807 
    120 H120      -82.1231   21.4608  -78.3348 H         1 UNK         0.0807 
    121 H121      -80.5427   22.2008  -78.1336 H         1 UNK         0.0807 
    122 H122      -81.2409   22.6861  -75.6877 H         1 UNK         0.2946 
    123 H123      -83.4399   23.0180  -73.0518 H         1 UNK         0.1144 
    124 H124      -84.1456   20.7108  -73.7128 H         1 UNK         0.0793 
    125 H125      -82.9070   20.6526  -72.4695 H         1 UNK         0.0793 
    126 H126      -82.4897   20.3094  -74.1486 H         1 UNK         0.0793 
    127 H127      -80.7535   21.9272  -73.4684 H         1 UNK         0.2896 
@<TRIPOS>BOND
     1    1    2 1    
     2    1   67 1    
     3    1   68 1    
     4    1   69 1    
     5    2    3 2    
     6    2    4 am   BACKBONE|DICT|INTERRES
     7    4    5 1    
     8    4   70 1    
     9    5    6 1    
    10    5   65 1    
    11    5   71 1    
    12    6    7 1    
    13    6   72 1    
    14    6   73 1    
    15    7    8 1    
    16    8    9 1    
    17    8   74 1    
    18    8   75 1    
    19    9   10 ar   
    20    9   14 ar   
    21   10   11 ar   
    22   10   76 1    
    23   11   12 ar   
    24   11   48 1    
    25   12   13 ar   
    26   12   77 1    
    27   13   14 ar   
    28   13   15 1    
    29   14   78 1    
    30   15   16 1    
    31   15   79 1    
    32   15   80 1    
    33   16   17 1    
    34   17   18 1    
    35   17   81 1    
    36   17   82 1    
    37   18   19 1    
    38   18   22 1    
    39   18   83 1    
    40   19   20 am   BACKBONE|DICT|INTERRES
    41   19   21 2    
    42   20   84 1    
    43   20   85 1    
    44   22   23 am   BACKBONE|DICT|INTERRES
    45   22   86 1    
    46   23   24 2    
    47   23   25 1    
    48   25   26 1    
    49   25   27 1    
    50   25   87 1    
    51   26   88 1    
    52   26   89 1    
    53   26   90 1    
    54   27   28 am   BACKBONE|DICT|INTERRES
    55   27   91 1    
    56   28   29 2    
    57   28   30 1    
    58   30   31 1    
    59   30   32 1    
    60   30   92 1    
    61   31   93 1    
    62   31   94 1    
    63   31   95 1    
    64   32   33 am   BACKBONE|DICT|INTERRES
    65   32   96 1    
    66   33   34 2    
    67   33   35 1    
    68   35   36 1    
    69   35   37 1    
    70   35   97 1    
    71   36   98 1    
    72   36   99 1    
    73   36  100 1    
    74   37   38 am   BACKBONE|DICT|INTERRES
    75   37  101 1    
    76   38   39 2    
    77   38   40 1    
    78   40   41 1    
    79   40   42 1    
    80   40  102 1    
    81   41  103 1    
    82   41  104 1    
    83   41  105 1    
    84   42   43 am   BACKBONE|DICT|INTERRES
    85   42  106 1    
    86   43   44 2    
    87   43   45 1    
    88   45   46 1    
    89   45   49 1    
    90   45  107 1    
    91   46   47 1    
    92   46  108 1    
    93   46  109 1    
    94   47   48 1    
    95   48  110 1    
    96   48  111 1    
    97   49   50 am   BACKBONE|DICT|INTERRES
    98   49  112 1    
    99   50   51 2    
   100   50   52 1    
   101   52   53 1    
   102   52   54 1    
   103   52  113 1    
   104   53  114 1    
   105   53  115 1    
   106   53  116 1    
   107   54   55 am   BACKBONE|DICT|INTERRES
   108   54  117 1    
   109   55   56 2    
   110   55   57 1    
   111   57   58 1    
   112   57   59 1    
   113   57  118 1    
   114   58  119 1    
   115   58  120 1    
   116   58  121 1    
   117   59   60 am   BACKBONE|DICT|INTERRES
   118   59  122 1    
   119   60   61 2    
   120   60   62 1    
   121   62   63 1    
   122   62   64 1    
   123   62  123 1    
   124   63  124 1    
   125   63  125 1    
   126   63  126 1    
   127   64   65 am   BACKBONE|DICT|INTERRES
   128   64  127 1    
   129   65   66 2    
@<TRIPOS>SUBSTRUCTURE
     1 UNK         1 GROUP             0       ****    0 ROOT    
