@<TRIPOS>MOLECULE
3R135
127   129    1
SMALL
USER_CHARGES


@<TRIPOS>ATOM
      1 CA        -79.5472   22.0036  -71.1653 C.3       0 UNK        -0.1998 
      2 C         -80.8956   22.6424  -71.4612 C.2       0 UNK         0.4909 
      3 O         -81.9247   21.9728  -71.3766 O.2       0 UNK        -0.5240 
      4 N         -80.8984   23.9327  -71.8188 N.am      1 UNK        -0.4739 
      5 CA        -82.0942   24.7380  -72.1072 C.3       1 UNK         0.0864 
      6 C6        -81.8804   26.2307  -71.7398 C.3       11 UNK        -0.0881 
      7 S7        -80.4144   27.0094  -72.5116 S.3       11 UNK        -0.2682 
      8 C8        -79.4794   27.4816  -71.0168 C.3       11 UNK         0.0289 
      9 C9        -78.3122   28.4217  -71.2968 C.ar      11 UNK        -0.0687 
     10 C10       -78.5135   29.6033  -72.0156 C.ar      11 UNK        -0.0823 
     11 C11       -77.4718   30.5181  -72.1931 C.ar      11 UNK        -0.0830 
     12 C12       -76.2241   30.2591  -71.6173 C.ar      11 UNK        -0.1021 
     13 C13       -76.0021   29.0758  -70.9044 C.ar      11 UNK        -0.0753 
     14 C14       -77.0478   28.1563  -70.7600 C.ar      11 UNK        -0.0933 
     15 C15       -74.6601   28.8150  -70.2287 C.3       11 UNK         0.0166 
     16 S16       -73.3631   28.2872  -71.3959 S.3       11 UNK        -0.2615 
     17 C17       -72.6646   29.8848  -71.9478 C.3       11 UNK        -0.0865 
     18 CA        -73.0246   30.1900  -73.4265 C.3       10 UNK         0.0862 
     19 C         -72.8024   31.6708  -73.8515 C.2       10 UNK         0.5551 
     20 N         -73.0279   31.9933  -75.1187 N.am      10 UNK        -0.7319 
     21 O         -72.4388   32.5253  -73.0466 O.2       10 UNK        -0.5018 
     22 N         -72.4449   29.2199  -74.3707 N.am      10 UNK        -0.4509 
     23 C         -71.1514   29.1239  -74.7074 C.2       10 UNK         0.4899 
     24 O         -70.2558   29.8099  -74.2110 O.2       10 UNK        -0.4839 
     25 CA        -70.8125   28.0865  -75.7960 C.3       9 UNK         0.0222 
     26 CB        -69.2950   27.8671  -75.9768 C.3       9 UNK        -0.1966 
     27 N         -71.5078   26.8090  -75.6037 N.am      9 UNK        -0.4218 
     28 C         -71.4181   25.9815  -74.5478 C.2       9 UNK         0.5020 
     29 O         -70.6686   26.1729  -73.5891 O.2       9 UNK        -0.5274 
     30 CA        -72.3039   24.7209  -74.5538 C.3       8 UNK         0.0270 
     31 CB        -73.0678   24.5664  -73.2250 C.3       8 UNK        -0.1976 
     32 N         -73.2608   24.7315  -75.6656 N.am      8 UNK        -0.4313 
     33 C         -73.1164   24.0263  -76.7954 C.2       8 UNK         0.5041 
     34 O         -72.1906   23.2384  -76.9938 O.2       8 UNK        -0.5577 
     35 CA        -74.1563   24.2336  -77.9099 C.3       7 UNK         0.0284 
     36 CB        -75.2791   23.1879  -77.8130 C.3       7 UNK        -0.1958 
     37 N         -74.7396   25.5776  -77.9820 N.am      7 UNK        -0.4454 
     38 C         -74.0621   26.6897  -78.3033 C.2       7 UNK         0.5089 
     39 O         -72.8348   26.7448  -78.3745 O.2       7 UNK        -0.5125 
     40 CA        -74.8922   27.9490  -78.5958 C.3       6 UNK         0.0408 
     41 CB        -75.7087   27.7800  -79.8882 C.3       6 UNK        -0.1791 
     42 N         -75.7930   28.2370  -77.4842 N.am      6 UNK        -0.4762 
     43 C         -75.5291   29.1068  -76.4986 C.2       6 UNK         0.5007 
     44 O         -74.5541   29.8594  -76.4942 O.2       6 UNK        -0.5032 
     45 CA        -76.4833   29.0909  -75.2806 C.3       5 UNK         0.0783 
     46 C46       -77.5458   30.2171  -75.3565 C.3       11 UNK        -0.0857 
     47 S47       -76.9061   31.7641  -74.6254 S.3       11 UNK        -0.2512 
     48 C48       -77.7102   31.7955  -72.9885 C.3       11 UNK         0.0225 
     49 N         -77.0704   27.7712  -75.0288 N.am      5 UNK        -0.4615 
     50 C         -76.3470   26.6719  -74.7705 C.2       4 UNK         0.5053 
     51 O         -75.1194   26.6684  -74.6913 O.2       4 UNK        -0.5105 
     52 CA        -77.0941   25.3332  -74.6772 C.3       4 UNK         0.0263 
     53 CB        -77.3205   24.9323  -73.2128 C.3       4 UNK        -0.1981 
     54 N         -78.3575   25.2917  -75.4270 N.am      4 UNK        -0.4224 
     55 C         -78.4552   25.4334  -76.7607 C.2       3 UNK         0.4895 
     56 O         -77.4958   25.7273  -77.4771 O.2       3 UNK        -0.5091 
     57 CA        -79.8309   25.1996  -77.4058 C.3       3 UNK         0.0250 
     58 CB        -79.7086   24.6602  -78.8474 C.3       3 UNK        -0.1996 
     59 N         -80.6461   24.2971  -76.5906 N.am      3 UNK        -0.4254 
     60 C         -81.9809   24.2068  -76.6330 C.2       2 UNK         0.5004 
     61 O         -82.6980   24.8666  -77.3860 O.2       2 UNK        -0.5226 
     62 CA        -82.6170   23.2255  -75.6377 C.3       2 UNK         0.0269 
     63 CB        -82.2780   21.7666  -75.9903 C.3       2 UNK        -0.1926 
     64 N         -82.2007   23.5146  -74.2626 N.am      2 UNK        -0.4687 
     65 C         -82.6556   24.5478  -73.5377 C.2       1 UNK         0.5165 
     66 O         -83.5070   25.3328  -73.9590 O.2       1 UNK        -0.5079 
     67 H67       -78.7477   22.7423  -71.1173 H         1 UNK         0.0900 
     68 H68       -79.2972   21.2774  -71.9380 H         1 UNK         0.0900 
     69 H69       -79.5808   21.4843  -70.2080 H         1 UNK         0.0900 
     70 H70       -80.0255   24.4363  -71.8806 H         1 UNK         0.2959 
     71 H71       -82.8945   24.3775  -71.4566 H         1 UNK         0.1079 
     72 H72       -81.7955   26.3067  -70.6549 H         1 UNK         0.0837 
     73 H73       -82.7589   26.8291  -71.9886 H         1 UNK         0.0837 
     74 H74       -80.1503   27.9846  -70.3190 H         1 UNK         0.0685 
     75 H75       -79.1360   26.5742  -70.5176 H         1 UNK         0.0685 
     76 H76       -79.4910   29.8147  -72.4271 H         1 UNK         0.1434 
     77 H77       -75.4288   30.9831  -71.7230 H         1 UNK         0.1329 
     78 H78       -76.8878   27.2516  -70.1897 H         1 UNK         0.1335 
     79 H79       -74.7708   28.0315  -69.4775 H         1 UNK         0.0680 
     80 H80       -74.3408   29.7016  -69.6796 H         1 UNK         0.0680 
     81 H81       -73.0224   30.6781  -71.2904 H         1 UNK         0.1032 
     82 H82       -71.5821   29.8606  -71.8154 H         1 UNK         0.1032 
     83 H83       -74.0998   30.0661  -73.5051 H         1 UNK         0.0461 
     84 H84       -72.8970   32.9438  -75.4248 H         1 UNK         0.3453 
     85 H85       -73.3986   31.2952  -75.7557 H         1 UNK         0.3453 
     86 H86       -73.1087   28.6213  -74.8406 H         1 UNK         0.2984 
     87 H87       -71.1955   28.4980  -76.7311 H         1 UNK         0.0554 
     88 H88       -69.0898   27.1502  -76.7717 H         1 UNK         0.0847 
     89 H89       -68.8261   27.4998  -75.0634 H         1 UNK         0.0847 
     90 H90       -68.7953   28.7986  -76.2454 H         1 UNK         0.0847 
     91 H91       -72.1226   26.5410  -76.3639 H         1 UNK         0.3141 
     92 H92       -71.6316   23.8656  -74.6450 H         1 UNK         0.0743 
     93 H93       -73.6456   25.4575  -72.9797 H         1 UNK         0.0784 
     94 H94       -73.7512   23.7177  -73.2525 H         1 UNK         0.0784 
     95 H95       -72.3768   24.3988  -72.3981 H         1 UNK         0.0784 
     96 H96       -74.0368   25.3826  -75.5658 H         1 UNK         0.3213 
     97 H97       -73.6357   24.0672  -78.8557 H         1 UNK         0.0855 
     98 H98       -74.8713   22.1763  -77.8297 H         1 UNK         0.0814 
     99 H99       -75.9720   23.2704  -78.6507 H         1 UNK         0.0814 
    100 H100      -75.8544   23.2895  -76.8942 H         1 UNK         0.0814 
    101 H101      -75.7538   25.6326  -77.8981 H         1 UNK         0.3105 
    102 H102      -74.2003   28.7801  -78.7481 H         1 UNK         0.0547 
    103 H103      -76.2407   28.6975  -80.1395 H         1 UNK         0.0837 
    104 H104      -75.0591   27.5420  -80.7315 H         1 UNK         0.0837 
    105 H105      -76.4460   26.9802  -79.8078 H         1 UNK         0.0837 
    106 H106      -76.5879   27.6163  -77.3798 H         1 UNK         0.3020 
    107 H107      -75.8662   29.2689  -74.4022 H         1 UNK         0.1245 
    108 H108      -78.4561   29.9338  -74.8274 H         1 UNK         0.0781 
    109 H109      -77.8598   30.4090  -76.3845 H         1 UNK         0.0781 
    110 H110      -78.7783   31.9737  -73.1230 H         1 UNK         0.0836 
    111 H111      -77.3302   32.6487  -72.4250 H         1 UNK         0.0836 
    112 H112      -78.0749   27.6934  -75.0799 H         1 UNK         0.3022 
    113 H113      -76.4385   24.5809  -75.1164 H         1 UNK         0.0747 
    114 H114      -77.8147   23.9644  -73.1355 H         1 UNK         0.0793 
    115 H115      -77.9166   25.6688  -72.6793 H         1 UNK         0.0793 
    116 H116      -76.3691   24.8520  -72.6846 H         1 UNK         0.0793 
    117 H117      -79.1986   25.1413  -74.8904 H         1 UNK         0.3047 
    118 H118      -80.3215   26.1746  -77.4410 H         1 UNK         0.0822 
    119 H119      -79.1400   25.3445  -79.4786 H         1 UNK         0.0807 
    120 H120      -80.6852   24.5365  -79.3152 H         1 UNK         0.0807 
    121 H121      -79.2011   23.6953  -78.8710 H         1 UNK         0.0807 
    122 H122      -80.1423   23.6849  -75.9650 H         1 UNK         0.2946 
    123 H123      -83.7013   23.3440  -75.7058 H         1 UNK         0.1144 
    124 H124      -82.5711   21.5361  -77.0156 H         1 UNK         0.0793 
    125 H125      -81.2116   21.5568  -75.9010 H         1 UNK         0.0793 
    126 H126      -82.8094   21.0713  -75.3401 H         1 UNK         0.0793 
    127 H127      -81.5383   22.8867  -73.8312 H         1 UNK         0.2896 
@<TRIPOS>BOND
     1    1    2 1    
     2    1   67 1    
     3    1   68 1    
     4    1   69 1    
     5    2    3 2    
     6    2    4 am   BACKBONE|DICT|INTERRES
     7    4    5 1    
     8    4   70 1    
     9    5    6 1    
    10    5   65 1    
    11    5   71 1    
    12    6    7 1    
    13    6   72 1    
    14    6   73 1    
    15    7    8 1    
    16    8    9 1    
    17    8   74 1    
    18    8   75 1    
    19    9   10 ar   
    20    9   14 ar   
    21   10   11 ar   
    22   10   76 1    
    23   11   12 ar   
    24   11   48 1    
    25   12   13 ar   
    26   12   77 1    
    27   13   14 ar   
    28   13   15 1    
    29   14   78 1    
    30   15   16 1    
    31   15   79 1    
    32   15   80 1    
    33   16   17 1    
    34   17   18 1    
    35   17   81 1    
    36   17   82 1    
    37   18   19 1    
    38   18   22 1    
    39   18   83 1    
    40   19   20 am   BACKBONE|DICT|INTERRES
    41   19   21 2    
    42   20   84 1    
    43   20   85 1    
    44   22   23 am   BACKBONE|DICT|INTERRES
    45   22   86 1    
    46   23   24 2    
    47   23   25 1    
    48   25   26 1    
    49   25   27 1    
    50   25   87 1    
    51   26   88 1    
    52   26   89 1    
    53   26   90 1    
    54   27   28 am   BACKBONE|DICT|INTERRES
    55   27   91 1    
    56   28   29 2    
    57   28   30 1    
    58   30   31 1    
    59   30   32 1    
    60   30   92 1    
    61   31   93 1    
    62   31   94 1    
    63   31   95 1    
    64   32   33 am   BACKBONE|DICT|INTERRES
    65   32   96 1    
    66   33   34 2    
    67   33   35 1    
    68   35   36 1    
    69   35   37 1    
    70   35   97 1    
    71   36   98 1    
    72   36   99 1    
    73   36  100 1    
    74   37   38 am   BACKBONE|DICT|INTERRES
    75   37  101 1    
    76   38   39 2    
    77   38   40 1    
    78   40   41 1    
    79   40   42 1    
    80   40  102 1    
    81   41  103 1    
    82   41  104 1    
    83   41  105 1    
    84   42   43 am   BACKBONE|DICT|INTERRES
    85   42  106 1    
    86   43   44 2    
    87   43   45 1    
    88   45   46 1    
    89   45   49 1    
    90   45  107 1    
    91   46   47 1    
    92   46  108 1    
    93   46  109 1    
    94   47   48 1    
    95   48  110 1    
    96   48  111 1    
    97   49   50 am   BACKBONE|DICT|INTERRES
    98   49  112 1    
    99   50   51 2    
   100   50   52 1    
   101   52   53 1    
   102   52   54 1    
   103   52  113 1    
   104   53  114 1    
   105   53  115 1    
   106   53  116 1    
   107   54   55 am   BACKBONE|DICT|INTERRES
   108   54  117 1    
   109   55   56 2    
   110   55   57 1    
   111   57   58 1    
   112   57   59 1    
   113   57  118 1    
   114   58  119 1    
   115   58  120 1    
   116   58  121 1    
   117   59   60 am   BACKBONE|DICT|INTERRES
   118   59  122 1    
   119   60   61 2    
   120   60   62 1    
   121   62   63 1    
   122   62   64 1    
   123   62  123 1    
   124   63  124 1    
   125   63  125 1    
   126   63  126 1    
   127   64   65 am   BACKBONE|DICT|INTERRES
   128   64  127 1    
   129   65   66 2    
@<TRIPOS>SUBSTRUCTURE
     1 UNK         1 GROUP             0       ****    0 ROOT    
