@<TRIPOS>MOLECULE
3R135
127   129    1
SMALL
USER_CHARGES


@<TRIPOS>ATOM
      1 CA        -75.9285   22.9723  -73.0578 C.3       0 UNK        -0.1998 
      2 C         -76.9600   23.3272  -71.9979 C.2       0 UNK         0.4909 
      3 O         -76.9369   22.7567  -70.9074 O.2       0 UNK        -0.5240 
      4 N         -77.8739   24.2532  -72.3145 N.am      1 UNK        -0.4739 
      5 CA        -79.0072   24.6393  -71.4585 C.3       1 UNK         0.0864 
      6 C6        -79.6232   25.9927  -71.8938 C.3       11 UNK        -0.0881 
      7 S7        -78.3867   27.3289  -71.9985 S.3       11 UNK        -0.2682 
      8 C8        -79.4391   28.7956  -71.8096 C.3       11 UNK         0.0289 
      9 C9        -78.7089   30.0443  -72.2774 C.ar      11 UNK        -0.0687 
     10 C10       -78.9669   30.5732  -73.5466 C.ar      11 UNK        -0.0823 
     11 C11       -78.3030   31.7238  -73.9812 C.ar      11 UNK        -0.0830 
     12 C12       -77.3769   32.3431  -73.1387 C.ar      11 UNK        -0.1021 
     13 C13       -77.1068   31.8218  -71.8712 C.ar      11 UNK        -0.0753 
     14 C14       -77.7776   30.6720  -71.4428 C.ar      11 UNK        -0.0933 
     15 C15       -76.1028   32.5231  -70.9695 C.3       11 UNK         0.0166 
     16 S16       -74.3951   32.2768  -71.5470 S.3       11 UNK        -0.2615 
     17 C17       -74.0136   30.6465  -70.8277 C.3       11 UNK        -0.0865 
     18 CA        -72.6830   30.0688  -71.3785 C.3       10 UNK         0.0862 
     19 C         -72.1469   28.9192  -70.4725 C.2       10 UNK         0.5551 
     20 N         -71.8998   27.7147  -70.9717 N.am      10 UNK        -0.7319 
     21 O         -71.9380   29.1312  -69.2804 O.2       10 UNK        -0.5018 
     22 N         -72.7962   29.7294  -72.8073 N.am      10 UNK        -0.4509 
     23 C         -71.7690   29.6475  -73.6626 C.2       10 UNK         0.4899 
     24 O         -70.6105   29.9469  -73.3677 O.2       10 UNK        -0.4839 
     25 CA        -72.0957   29.1238  -75.0799 C.3       9 UNK         0.0222 
     26 CB        -70.8387   28.6798  -75.8563 C.3       9 UNK        -0.1966 
     27 N         -73.1015   28.0517  -75.1009 N.am      9 UNK        -0.4218 
     28 C         -73.0753   26.9039  -74.4039 C.2       9 UNK         0.5020 
     29 O         -72.1853   26.5936  -73.6117 O.2       9 UNK        -0.5274 
     30 CA        -74.2572   25.9467  -74.6078 C.3       8 UNK         0.0270 
     31 CB        -75.5357   26.5219  -73.9760 C.3       8 UNK        -0.1976 
     32 N         -74.5020   25.6391  -76.0151 N.am      8 UNK        -0.4313 
     33 C         -73.6641   24.9768  -76.8252 C.2       8 UNK         0.5041 
     34 O         -72.5815   24.5097  -76.4700 O.2       8 UNK        -0.5577 
     35 CA        -74.1133   24.8072  -78.2844 C.3       7 UNK         0.0284 
     36 CB        -75.0524   23.5978  -78.4307 C.3       7 UNK        -0.1958 
     37 N         -74.7809   26.0140  -78.7747 N.am      7 UNK        -0.4454 
     38 C         -74.1372   27.0905  -79.2461 C.2       7 UNK         0.5089 
     39 O         -72.9176   27.1435  -79.4071 O.2       7 UNK        -0.5125 
     40 CA        -74.9914   28.3217  -79.6011 C.3       6 UNK         0.0408 
     41 CB        -75.3591   28.3043  -81.0932 C.3       6 UNK        -0.1791 
     42 N         -76.2153   28.4498  -78.8043 N.am      6 UNK        -0.4762 
     43 C         -76.2481   28.7078  -77.4880 C.2       6 UNK         0.5007 
     44 O         -75.2417   28.8295  -76.7880 O.2       6 UNK        -0.5032 
     45 CA        -77.6480   28.7885  -76.8370 C.3       5 UNK         0.0783 
     46 C46       -78.3535   30.1334  -77.1555 C.3       11 UNK        -0.0857 
     47 S47       -77.4647   31.6345  -76.6127 S.3       11 UNK        -0.2512 
     48 C48       -78.5861   32.3155  -75.3521 C.3       11 UNK         0.0225 
     49 N         -78.5302   27.6723  -77.2128 N.am      5 UNK        -0.4615 
     50 C         -78.2402   26.3642  -77.2435 C.2       4 UNK         0.5053 
     51 O         -77.1352   25.8934  -76.9728 O.2       4 UNK        -0.5105 
     52 CA        -79.3717   25.4531  -77.7527 C.3       4 UNK         0.0263 
     53 CB        -79.5197   25.6044  -79.2772 C.3       4 UNK        -0.1981 
     54 N         -79.1994   24.0291  -77.4487 N.am      4 UNK        -0.4224 
     55 C         -79.1303   23.4870  -76.2271 C.2       3 UNK         0.4895 
     56 O         -79.1035   24.1339  -75.1736 O.2       3 UNK        -0.5091 
     57 CA        -79.0998   21.9457  -76.1751 C.3       3 UNK         0.0250 
     58 CB        -77.6746   21.4202  -76.4131 C.3       3 UNK        -0.1996 
     59 N         -79.5665   21.4925  -74.8653 N.am      3 UNK        -0.4254 
     60 C         -80.8500   21.5302  -74.4711 C.2       2 UNK         0.5004 
     61 O         -81.8142   21.5431  -75.2364 O.2       2 UNK        -0.5226 
     62 CA        -81.0620   21.7456  -72.9687 C.3       2 UNK         0.0269 
     63 CB        -80.7152   20.4831  -72.1555 C.3       2 UNK        -0.1926 
     64 N         -80.2056   22.8748  -72.6158 N.am      2 UNK        -0.4687 
     65 C         -80.0872   23.5353  -71.4613 C.2       1 UNK         0.5165 
     66 O         -80.7559   23.3062  -70.4531 O.2       1 UNK        -0.5079 
     67 H67       -74.9321   23.2494  -72.7156 H         1 UNK         0.0900 
     68 H68       -76.1221   23.4784  -74.0032 H         1 UNK         0.0900 
     69 H69       -75.9361   21.8986  -73.2431 H         1 UNK         0.0900 
     70 H70       -77.8651   24.6791  -73.2325 H         1 UNK         0.2959 
     71 H71       -78.6443   24.7408  -70.4331 H         1 UNK         0.1079 
     72 H72       -80.1014   25.9051  -72.8720 H         1 UNK         0.0837 
     73 H73       -80.4055   26.2898  -71.1923 H         1 UNK         0.0837 
     74 H74       -79.7334   28.9006  -70.7643 H         1 UNK         0.0685 
     75 H75       -80.3593   28.6605  -72.3805 H         1 UNK         0.0685 
     76 H76       -79.6847   30.0897  -74.1947 H         1 UNK         0.1434 
     77 H77       -76.8580   33.2322  -73.4711 H         1 UNK         0.1329 
     78 H78       -77.5756   30.2618  -70.4628 H         1 UNK         0.1335 
     79 H79       -76.1977   32.1860  -69.9360 H         1 UNK         0.0680 
     80 H80       -76.3182   33.5926  -70.9615 H         1 UNK         0.0680 
     81 H81       -73.9668   30.7775  -69.7447 H         1 UNK         0.1032 
     82 H82       -74.8383   29.9567  -71.0164 H         1 UNK         0.1032 
     83 H83       -71.9327   30.8575  -71.2927 H         1 UNK         0.0461 
     84 H84       -72.0323   27.5054  -71.9571 H         1 UNK         0.3453 
     85 H85       -71.5482   26.9976  -70.3582 H         1 UNK         0.3453 
     86 H86       -73.7151   29.4692  -73.1323 H         1 UNK         0.2984 
     87 H87       -72.5382   29.9629  -75.6186 H         1 UNK         0.0554 
     88 H88       -71.0929   28.3450  -76.8623 H         1 UNK         0.0847 
     89 H89       -70.3231   27.8617  -75.3519 H         1 UNK         0.0847 
     90 H90       -70.1280   29.5007  -75.9589 H         1 UNK         0.0847 
     91 H91       -73.8998   28.2228  -75.7129 H         1 UNK         0.3141 
     92 H92       -74.0154   25.0085  -74.1063 H         1 UNK         0.0743 
     93 H93       -75.4256   26.6186  -72.8951 H         1 UNK         0.0784 
     94 H94       -75.7799   27.5097  -74.3670 H         1 UNK         0.0784 
     95 H95       -76.3972   25.8820  -74.1613 H         1 UNK         0.0784 
     96 H96       -75.4089   25.9119  -76.3900 H         1 UNK         0.3213 
     97 H97       -73.2243   24.6182  -78.8905 H         1 UNK         0.0855 
     98 H98       -75.9600   23.7119  -77.8382 H         1 UNK         0.0814 
     99 H99       -74.5611   22.6827  -78.0975 H         1 UNK         0.0814 
    100 H100      -75.3470   23.4479  -79.4693 H         1 UNK         0.0814 
    101 H101      -75.7769   26.0801  -78.6068 H         1 UNK         0.3105 
    102 H102      -74.3800   29.2069  -79.4130 H         1 UNK         0.0547 
    103 H103      -75.9932   27.4531  -81.3442 H         1 UNK         0.0837 
    104 H104      -75.8846   29.2139  -81.3844 H         1 UNK         0.0837 
    105 H105      -74.4646   28.2376  -81.7143 H         1 UNK         0.0837 
    106 H106      -77.0918   28.3466  -79.2949 H         1 UNK         0.3020 
    107 H107      -77.5016   28.7259  -75.7565 H         1 UNK         0.1245 
    108 H108      -79.3485   30.1343  -76.7092 H         1 UNK         0.0781 
    109 H109      -78.5214   30.2253  -78.2303 H         1 UNK         0.0781 
    110 H110      -78.4495   33.3976  -75.3181 H         1 UNK         0.0836 
    111 H111      -79.6279   32.1594  -75.6358 H         1 UNK         0.0836 
    112 H112      -79.4668   27.9418  -77.4759 H         1 UNK         0.3022 
    113 H113      -80.2989   25.7749  -77.2740 H         1 UNK         0.0747 
    114 H114      -79.7095   26.6402  -79.5614 H         1 UNK         0.0793 
    115 H115      -80.3556   25.0153  -79.6554 H         1 UNK         0.0793 
    116 H116      -78.6190   25.2830  -79.8024 H         1 UNK         0.0793 
    117 H117      -79.1764   23.4098  -78.2453 H         1 UNK         0.3047 
    118 H118      -79.7631   21.5467  -76.9459 H         1 UNK         0.0822 
    119 H119      -77.3315   21.6647  -77.4189 H         1 UNK         0.0807 
    120 H120      -77.6302   20.3353  -76.3152 H         1 UNK         0.0807 
    121 H121      -76.9588   21.8499  -75.7121 H         1 UNK         0.0807 
    122 H122      -78.8636   21.4598  -74.1421 H         1 UNK         0.2946 
    123 H123      -82.1042   22.0212  -72.7948 H         1 UNK         0.1144 
    124 H124      -81.3052   19.6300  -72.4929 H         1 UNK         0.0793 
    125 H125      -80.9295   20.6213  -71.0958 H         1 UNK         0.0793 
    126 H126      -79.6630   20.2125  -72.2485 H         1 UNK         0.0793 
    127 H127      -79.6636   23.2387  -73.3949 H         1 UNK         0.2896 
@<TRIPOS>BOND
     1    1    2 1    
     2    1   67 1    
     3    1   68 1    
     4    1   69 1    
     5    2    3 2    
     6    2    4 am   BACKBONE|DICT|INTERRES
     7    4    5 1    
     8    4   70 1    
     9    5    6 1    
    10    5   65 1    
    11    5   71 1    
    12    6    7 1    
    13    6   72 1    
    14    6   73 1    
    15    7    8 1    
    16    8    9 1    
    17    8   74 1    
    18    8   75 1    
    19    9   10 ar   
    20    9   14 ar   
    21   10   11 ar   
    22   10   76 1    
    23   11   12 ar   
    24   11   48 1    
    25   12   13 ar   
    26   12   77 1    
    27   13   14 ar   
    28   13   15 1    
    29   14   78 1    
    30   15   16 1    
    31   15   79 1    
    32   15   80 1    
    33   16   17 1    
    34   17   18 1    
    35   17   81 1    
    36   17   82 1    
    37   18   19 1    
    38   18   22 1    
    39   18   83 1    
    40   19   20 am   BACKBONE|DICT|INTERRES
    41   19   21 2    
    42   20   84 1    
    43   20   85 1    
    44   22   23 am   BACKBONE|DICT|INTERRES
    45   22   86 1    
    46   23   24 2    
    47   23   25 1    
    48   25   26 1    
    49   25   27 1    
    50   25   87 1    
    51   26   88 1    
    52   26   89 1    
    53   26   90 1    
    54   27   28 am   BACKBONE|DICT|INTERRES
    55   27   91 1    
    56   28   29 2    
    57   28   30 1    
    58   30   31 1    
    59   30   32 1    
    60   30   92 1    
    61   31   93 1    
    62   31   94 1    
    63   31   95 1    
    64   32   33 am   BACKBONE|DICT|INTERRES
    65   32   96 1    
    66   33   34 2    
    67   33   35 1    
    68   35   36 1    
    69   35   37 1    
    70   35   97 1    
    71   36   98 1    
    72   36   99 1    
    73   36  100 1    
    74   37   38 am   BACKBONE|DICT|INTERRES
    75   37  101 1    
    76   38   39 2    
    77   38   40 1    
    78   40   41 1    
    79   40   42 1    
    80   40  102 1    
    81   41  103 1    
    82   41  104 1    
    83   41  105 1    
    84   42   43 am   BACKBONE|DICT|INTERRES
    85   42  106 1    
    86   43   44 2    
    87   43   45 1    
    88   45   46 1    
    89   45   49 1    
    90   45  107 1    
    91   46   47 1    
    92   46  108 1    
    93   46  109 1    
    94   47   48 1    
    95   48  110 1    
    96   48  111 1    
    97   49   50 am   BACKBONE|DICT|INTERRES
    98   49  112 1    
    99   50   51 2    
   100   50   52 1    
   101   52   53 1    
   102   52   54 1    
   103   52  113 1    
   104   53  114 1    
   105   53  115 1    
   106   53  116 1    
   107   54   55 am   BACKBONE|DICT|INTERRES
   108   54  117 1    
   109   55   56 2    
   110   55   57 1    
   111   57   58 1    
   112   57   59 1    
   113   57  118 1    
   114   58  119 1    
   115   58  120 1    
   116   58  121 1    
   117   59   60 am   BACKBONE|DICT|INTERRES
   118   59  122 1    
   119   60   61 2    
   120   60   62 1    
   121   62   63 1    
   122   62   64 1    
   123   62  123 1    
   124   63  124 1    
   125   63  125 1    
   126   63  126 1    
   127   64   65 am   BACKBONE|DICT|INTERRES
   128   64  127 1    
   129   65   66 2    
@<TRIPOS>SUBSTRUCTURE
     1 UNK         1 GROUP             0       ****    0 ROOT    
