@<TRIPOS>MOLECULE
3R135
127   129    1
SMALL
USER_CHARGES


@<TRIPOS>ATOM
      1 CA        -82.9954   31.6644  -76.2075 C.3       0 UNK        -0.1998 
      2 C         -81.8389   30.7069  -76.4521 C.2       0 UNK         0.4909 
      3 O         -81.3217   30.6441  -77.5677 O.2       0 UNK        -0.5240 
      4 N         -81.4294   29.9616  -75.4169 N.am      1 UNK        -0.4739 
      5 CA        -80.3298   28.9863  -75.4666 C.3       1 UNK         0.0864 
      6 C6        -79.8449   28.5972  -74.0479 C.3       11 UNK        -0.0881 
      7 S7        -79.1449   30.0280  -73.1640 S.3       11 UNK        -0.2682 
      8 C8        -79.2185   29.4587  -71.4372 C.3       11 UNK         0.0289 
      9 C9        -78.1579   28.4121  -71.1193 C.ar      11 UNK        -0.0687 
     10 C10       -78.5267   27.1074  -70.7774 C.ar      11 UNK        -0.0823 
     11 C11       -77.5582   26.1674  -70.4077 C.ar      11 UNK        -0.0830 
     12 C12       -76.2082   26.5342  -70.4038 C.ar      11 UNK        -0.1021 
     13 C13       -75.8272   27.8355  -70.7487 C.ar      11 UNK        -0.0753 
     14 C14       -76.8060   28.7673  -71.1070 C.ar      11 UNK        -0.0933 
     15 C15       -74.3648   28.2526  -70.7047 C.3       11 UNK         0.0166 
     16 S16       -73.5002   27.7621  -72.2231 S.3       11 UNK        -0.2615 
     17 C17       -72.1821   29.0196  -72.3254 C.3       11 UNK        -0.0865 
     18 CA        -72.5705   30.2188  -73.2325 C.3       10 UNK         0.0862 
     19 C         -71.4310   31.2787  -73.2832 C.2       10 UNK         0.5551 
     20 N         -70.8804   31.6223  -74.4430 N.am      10 UNK        -0.7319 
     21 O         -71.0450   31.8097  -72.2446 O.2       10 UNK        -0.5018 
     22 N         -73.0321   29.7816  -74.5590 N.am      10 UNK        -0.4509 
     23 C         -73.8834   30.4686  -75.3333 C.2       10 UNK         0.4899 
     24 O         -74.4321   31.5124  -74.9768 O.2       10 UNK        -0.4839 
     25 CA        -74.1761   29.9016  -76.7398 C.3       9 UNK         0.0222 
     26 CB        -74.5717   30.9975  -77.7521 C.3       9 UNK        -0.1966 
     27 N         -73.0974   29.0628  -77.2763 N.am      9 UNK        -0.4218 
     28 C         -71.8207   29.4213  -77.4950 C.2       9 UNK         0.5020 
     29 O         -71.3921   30.5644  -77.3215 O.2       9 UNK        -0.5274 
     30 CA        -70.8552   28.2946  -77.9272 C.3       8 UNK         0.0270 
     31 CB        -69.3752   28.6474  -77.6649 C.3       8 UNK        -0.1976 
     32 N         -71.1882   26.9914  -77.3310 N.am      8 UNK        -0.4313 
     33 C         -71.3126   26.7211  -76.0230 C.2       8 UNK         0.5041 
     34 O         -71.0984   27.5370  -75.1254 O.2       8 UNK        -0.5577 
     35 CA        -71.8507   25.3289  -75.6593 C.3       7 UNK         0.0284 
     36 CB        -70.9278   24.6225  -74.6528 C.3       7 UNK        -0.1958 
     37 N         -73.1969   25.4206  -75.0912 N.am      7 UNK        -0.4454 
     38 C         -74.2802   25.9272  -75.6922 C.2       7 UNK         0.5089 
     39 O         -74.2698   26.3620  -76.8470 O.2       7 UNK        -0.5125 
     40 CA        -75.5869   25.9497  -74.8686 C.3       6 UNK         0.0408 
     41 CB        -76.7730   26.4878  -75.6842 C.3       6 UNK        -0.1791 
     42 N         -75.9605   24.6418  -74.3189 N.am      6 UNK        -0.4762 
     43 C         -75.3656   24.0124  -73.2927 C.2       6 UNK         0.5007 
     44 O         -74.3657   24.4461  -72.7197 O.2       6 UNK        -0.5032 
     45 CA        -75.9571   22.6685  -72.8166 C.3       5 UNK         0.0783 
     46 C46       -76.5635   22.7839  -71.3946 C.3       11 UNK        -0.0857 
     47 S47       -78.1867   23.6252  -71.3428 S.3       11 UNK        -0.2512 
     48 C48       -77.9869   24.7799  -69.9516 C.3       11 UNK         0.0225 
     49 N         -76.9072   22.0748  -73.7609 N.am      5 UNK        -0.4615 
     50 C         -76.5942   21.5103  -74.9329 C.2       4 UNK         0.5053 
     51 O         -75.4391   21.3706  -75.3343 O.2       4 UNK        -0.5105 
     52 CA        -77.7635   21.0232  -75.8110 C.3       4 UNK         0.0263 
     53 CB        -77.8940   19.4936  -75.7263 C.3       4 UNK        -0.1981 
     54 N         -79.0618   21.6337  -75.4917 N.am      4 UNK        -0.4224 
     55 C         -79.3583   22.9311  -75.6477 C.2       3 UNK         0.4895 
     56 O         -78.5492   23.7770  -76.0335 O.2       3 UNK        -0.5091 
     57 CA        -80.7821   23.3555  -75.2732 C.3       3 UNK         0.0250 
     58 CB        -80.8961   23.6336  -73.7637 C.3       3 UNK        -0.1996 
     59 N         -81.1352   24.5575  -76.0222 N.am      3 UNK        -0.4254 
     60 C         -82.3766   24.9463  -76.3305 C.2       2 UNK         0.5004 
     61 O         -83.3871   24.3285  -75.9880 O.2       2 UNK        -0.5226 
     62 CA        -82.5079   26.2547  -77.1350 C.3       2 UNK         0.0269 
     63 CB        -83.9616   26.5579  -77.5456 C.3       2 UNK        -0.1926 
     64 N         -81.9826   27.4023  -76.3910 N.am      2 UNK        -0.4687 
     65 C         -80.6865   27.7281  -76.2867 C.2       1 UNK         0.5165 
     66 O         -79.7866   27.0749  -76.8146 O.2       1 UNK        -0.5079 
     67 H67       -82.6853   32.6879  -76.4166 H         1 UNK         0.0900 
     68 H68       -83.8300   31.4201  -76.8642 H         1 UNK         0.0900 
     69 H69       -83.3499   31.6217  -75.1778 H         1 UNK         0.0900 
     70 H70       -81.8716   30.0760  -74.5157 H         1 UNK         0.2959 
     71 H71       -79.4934   29.4575  -75.9886 H         1 UNK         0.1079 
     72 H72       -79.0715   27.8308  -74.0882 H         1 UNK         0.0837 
     73 H73       -80.6648   28.1721  -73.4657 H         1 UNK         0.0837 
     74 H74       -80.2200   29.0847  -71.2189 H         1 UNK         0.0685 
     75 H75       -79.0683   30.3185  -70.7828 H         1 UNK         0.0685 
     76 H76       -79.5717   26.8286  -70.7700 H         1 UNK         0.1434 
     77 H77       -75.4529   25.8137  -70.1206 H         1 UNK         0.1329 
     78 H78       -76.5185   29.7775  -71.3653 H         1 UNK         0.1335 
     79 H79       -74.2919   29.3333  -70.5721 H         1 UNK         0.0680 
     80 H80       -73.8684   27.8011  -69.8445 H         1 UNK         0.0680 
     81 H81       -71.2827   28.5332  -72.7062 H         1 UNK         0.1032 
     82 H82       -71.9314   29.3597  -71.3188 H         1 UNK         0.1032 
     83 H83       -73.4094   30.7175  -72.7432 H         1 UNK         0.0461 
     84 H84       -71.1852   31.1971  -75.3108 H         1 UNK         0.3453 
     85 H85       -70.1478   32.3135  -74.4545 H         1 UNK         0.3453 
     86 H86       -72.5750   28.9501  -74.9193 H         1 UNK         0.2984 
     87 H87       -75.0351   29.2409  -76.6210 H         1 UNK         0.0554 
     88 H88       -75.4675   31.5278  -77.4267 H         1 UNK         0.0847 
     89 H89       -74.7882   30.5734  -78.7324 H         1 UNK         0.0847 
     90 H90       -73.7820   31.7396  -77.8740 H         1 UNK         0.0847 
     91 H91       -73.3415   28.0826  -77.3915 H         1 UNK         0.3141 
     92 H92       -70.9840   28.1843  -79.0049 H         1 UNK         0.0743 
     93 H93       -69.0840   29.5472  -78.2083 H         1 UNK         0.0784 
     94 H94       -69.1858   28.8315  -76.6067 H         1 UNK         0.0784 
     95 H95       -68.7121   27.8458  -77.9899 H         1 UNK         0.0784 
     96 H96       -71.4300   26.2627  -77.9896 H         1 UNK         0.3213 
     97 H97       -71.9080   24.7165  -76.5613 H         1 UNK         0.0855 
     98 H98       -70.8680   25.1688  -73.7102 H         1 UNK         0.0814 
     99 H99       -69.9139   24.5373  -75.0459 H         1 UNK         0.0814 
    100 H100      -71.2777   23.6137  -74.4331 H         1 UNK         0.0814 
    101 H101      -73.3159   25.1163  -74.1277 H         1 UNK         0.3105 
    102 H102      -75.4359   26.6306  -74.0305 H         1 UNK         0.0547 
    103 H103      -76.9149   25.9297  -76.6106 H         1 UNK         0.0837 
    104 H104      -76.6298   27.5349  -75.9502 H         1 UNK         0.0837 
    105 H105      -77.7005   26.4162  -75.1202 H         1 UNK         0.0837 
    106 H106      -76.7578   24.1941  -74.7557 H         1 UNK         0.3020 
    107 H107      -75.1049   21.9879  -72.7482 H         1 UNK         0.1245 
    108 H108      -75.8615   23.2743  -70.7175 H         1 UNK         0.0781 
    109 H109      -76.7059   21.7830  -70.9845 H         1 UNK         0.0781 
    110 H110      -77.2836   24.3787  -69.2204 H         1 UNK         0.0836 
    111 H111      -78.9417   24.8520  -69.4285 H         1 UNK         0.0836 
    112 H112      -77.8806   22.1540  -73.5053 H         1 UNK         0.3022 
    113 H113      -77.5190   21.2882  -76.8419 H         1 UNK         0.0747 
    114 H114      -78.6529   19.1202  -76.4142 H         1 UNK         0.0793 
    115 H115      -76.9543   19.0057  -75.9899 H         1 UNK         0.0793 
    116 H116      -78.1596   19.1660  -74.7204 H         1 UNK         0.0793 
    117 H117      -79.7801   21.0087  -75.1533 H         1 UNK         0.3047 
    118 H118      -81.4643   22.5485  -75.5495 H         1 UNK         0.0822 
    119 H119      -81.9161   23.8969  -73.4836 H         1 UNK         0.0807 
    120 H120      -80.2455   24.4545  -73.4588 H         1 UNK         0.0807 
    121 H121      -80.6187   22.7571  -73.1771 H         1 UNK         0.0807 
    122 H122      -80.3461   25.1131  -76.3435 H         1 UNK         0.2946 
    123 H123      -81.9256   26.1274  -78.0510 H         1 UNK         0.1144 
    124 H124      -84.0201   27.4547  -78.1627 H         1 UNK         0.0793 
    125 H125      -84.6058   26.7050  -76.6778 H         1 UNK         0.0793 
    126 H126      -84.3820   25.7377  -78.1293 H         1 UNK         0.0793 
    127 H127      -82.6573   27.9809  -75.9119 H         1 UNK         0.2896 
@<TRIPOS>BOND
     1    1    2 1    
     2    1   67 1    
     3    1   68 1    
     4    1   69 1    
     5    2    3 2    
     6    2    4 am   BACKBONE|DICT|INTERRES
     7    4    5 1    
     8    4   70 1    
     9    5    6 1    
    10    5   65 1    
    11    5   71 1    
    12    6    7 1    
    13    6   72 1    
    14    6   73 1    
    15    7    8 1    
    16    8    9 1    
    17    8   74 1    
    18    8   75 1    
    19    9   10 ar   
    20    9   14 ar   
    21   10   11 ar   
    22   10   76 1    
    23   11   12 ar   
    24   11   48 1    
    25   12   13 ar   
    26   12   77 1    
    27   13   14 ar   
    28   13   15 1    
    29   14   78 1    
    30   15   16 1    
    31   15   79 1    
    32   15   80 1    
    33   16   17 1    
    34   17   18 1    
    35   17   81 1    
    36   17   82 1    
    37   18   19 1    
    38   18   22 1    
    39   18   83 1    
    40   19   20 am   BACKBONE|DICT|INTERRES
    41   19   21 2    
    42   20   84 1    
    43   20   85 1    
    44   22   23 am   BACKBONE|DICT|INTERRES
    45   22   86 1    
    46   23   24 2    
    47   23   25 1    
    48   25   26 1    
    49   25   27 1    
    50   25   87 1    
    51   26   88 1    
    52   26   89 1    
    53   26   90 1    
    54   27   28 am   BACKBONE|DICT|INTERRES
    55   27   91 1    
    56   28   29 2    
    57   28   30 1    
    58   30   31 1    
    59   30   32 1    
    60   30   92 1    
    61   31   93 1    
    62   31   94 1    
    63   31   95 1    
    64   32   33 am   BACKBONE|DICT|INTERRES
    65   32   96 1    
    66   33   34 2    
    67   33   35 1    
    68   35   36 1    
    69   35   37 1    
    70   35   97 1    
    71   36   98 1    
    72   36   99 1    
    73   36  100 1    
    74   37   38 am   BACKBONE|DICT|INTERRES
    75   37  101 1    
    76   38   39 2    
    77   38   40 1    
    78   40   41 1    
    79   40   42 1    
    80   40  102 1    
    81   41  103 1    
    82   41  104 1    
    83   41  105 1    
    84   42   43 am   BACKBONE|DICT|INTERRES
    85   42  106 1    
    86   43   44 2    
    87   43   45 1    
    88   45   46 1    
    89   45   49 1    
    90   45  107 1    
    91   46   47 1    
    92   46  108 1    
    93   46  109 1    
    94   47   48 1    
    95   48  110 1    
    96   48  111 1    
    97   49   50 am   BACKBONE|DICT|INTERRES
    98   49  112 1    
    99   50   51 2    
   100   50   52 1    
   101   52   53 1    
   102   52   54 1    
   103   52  113 1    
   104   53  114 1    
   105   53  115 1    
   106   53  116 1    
   107   54   55 am   BACKBONE|DICT|INTERRES
   108   54  117 1    
   109   55   56 2    
   110   55   57 1    
   111   57   58 1    
   112   57   59 1    
   113   57  118 1    
   114   58  119 1    
   115   58  120 1    
   116   58  121 1    
   117   59   60 am   BACKBONE|DICT|INTERRES
   118   59  122 1    
   119   60   61 2    
   120   60   62 1    
   121   62   63 1    
   122   62   64 1    
   123   62  123 1    
   124   63  124 1    
   125   63  125 1    
   126   63  126 1    
   127   64   65 am   BACKBONE|DICT|INTERRES
   128   64  127 1    
   129   65   66 2    
@<TRIPOS>SUBSTRUCTURE
     1 UNK         1 GROUP             0       ****    0 ROOT    
