@<TRIPOS>MOLECULE
3R135
127   129    1
SMALL
USER_CHARGES


@<TRIPOS>ATOM
      1 CA        -78.3733   21.8841  -71.6705 C.3       0 UNK        -0.1998 
      2 C         -79.4130   22.9272  -72.0500 C.2       0 UNK         0.4909 
      3 O         -80.1770   22.7113  -72.9913 O.2       0 UNK        -0.5240 
      4 N         -79.4356   24.0614  -71.3352 N.am      1 UNK        -0.4739 
      5 CA        -80.3346   25.2017  -71.5542 C.3       1 UNK         0.0864 
      6 C6        -80.0914   26.3055  -70.4949 C.3       11 UNK        -0.0881 
      7 S7        -81.4525   27.5156  -70.4286 S.3       11 UNK        -0.2682 
      8 C8        -80.5971   28.9836  -69.7651 C.3       11 UNK         0.0289 
      9 C9        -79.6830   29.6801  -70.7711 C.ar      11 UNK        -0.0687 
     10 C10       -80.1507   30.0231  -72.0458 C.ar      11 UNK        -0.0823 
     11 C11       -79.3398   30.7361  -72.9348 C.ar      11 UNK        -0.0830 
     12 C12       -78.0626   31.1272  -72.5294 C.ar      11 UNK        -0.1021 
     13 C13       -77.5685   30.7708  -71.2729 C.ar      11 UNK        -0.0753 
     14 C14       -78.3836   30.0451  -70.3977 C.ar      11 UNK        -0.0933 
     15 C15       -76.1739   31.2176  -70.8522 C.3       11 UNK         0.0166 
     16 S16       -74.9036   30.8059  -72.0949 S.3       11 UNK        -0.2615 
     17 C17       -74.6252   29.0331  -71.7736 C.3       11 UNK        -0.0865 
     18 CA        -73.1806   28.6215  -72.1706 C.3       10 UNK         0.0862 
     19 C         -72.7270   27.2760  -71.5333 C.2       10 UNK         0.5551 
     20 N         -71.8496   26.5091  -72.1689 N.am      10 UNK        -0.7319 
     21 O         -73.1557   26.9241  -70.4373 O.2       10 UNK        -0.5018 
     22 N         -73.0086   28.6276  -73.6320 N.am      10 UNK        -0.4509 
     23 C         -72.1333   29.3654  -74.3229 C.2       10 UNK         0.4899 
     24 O         -71.3969   30.2152  -73.8186 O.2       10 UNK        -0.4839 
     25 CA        -72.0573   29.0743  -75.8382 C.3       9 UNK         0.0222 
     26 CB        -70.8202   29.7057  -76.5108 C.3       9 UNK        -0.1966 
     27 N         -72.1384   27.6400  -76.1518 N.am      9 UNK        -0.4218 
     28 C         -71.3462   26.6608  -75.6877 C.2       9 UNK         0.5020 
     29 O         -70.3837   26.8541  -74.9433 O.2       9 UNK        -0.5274 
     30 CA        -71.6986   25.2117  -76.0651 C.3       8 UNK         0.0270 
     31 CB        -72.0599   24.3943  -74.8132 C.3       8 UNK        -0.1976 
     32 N         -72.7928   25.1017  -77.0363 N.am      8 UNK        -0.4313 
     33 C         -72.6021   25.0045  -78.3577 C.2       8 UNK         0.5041 
     34 O         -71.5049   25.1298  -78.9034 O.2       8 UNK        -0.5577 
     35 CA        -73.8281   24.6725  -79.2156 C.3       7 UNK         0.0284 
     36 CB        -74.1446   23.1692  -79.1362 C.3       7 UNK        -0.1958 
     37 N         -75.0165   25.4430  -78.8431 N.am      7 UNK        -0.4454 
     38 C         -75.3392   26.6113  -79.4139 C.2       7 UNK         0.5089 
     39 O         -74.5960   27.2299  -80.1768 O.2       7 UNK        -0.5125 
     40 CA        -76.7496   27.1563  -79.1412 C.3       6 UNK         0.0408 
     41 CB        -77.8172   26.2490  -79.7756 C.3       6 UNK        -0.1791 
     42 N         -77.0463   27.3376  -77.7231 N.am      6 UNK        -0.4762 
     43 C         -76.5159   28.2944  -76.9473 C.2       6 UNK         0.5007 
     44 O         -75.6520   29.0883  -77.3217 O.2       6 UNK        -0.5032 
     45 CA        -77.0447   28.3604  -75.4998 C.3       5 UNK         0.0783 
     46 C46       -78.5101   28.8724  -75.4625 C.3       11 UNK        -0.0857 
     47 S47       -78.6519   30.6795  -75.6492 S.3       11 UNK        -0.2512 
     48 C48       -79.8453   31.0943  -74.3282 C.3       11 UNK         0.0225 
     49 N         -76.9290   27.0624  -74.8327 N.am      5 UNK        -0.4615 
     50 C         -75.8073   26.3526  -74.6636 C.2       4 UNK         0.5053 
     51 O         -74.6851   26.7579  -74.9545 O.2       4 UNK        -0.5105 
     52 CA        -75.9691   24.9275  -74.1155 C.3       4 UNK         0.0263 
     53 CB        -76.0132   24.9292  -72.5796 C.3       4 UNK        -0.1981 
     54 N         -77.1548   24.2647  -74.6612 N.am      4 UNK        -0.4224 
     55 C         -77.2831   23.8885  -75.9426 C.2       3 UNK         0.4895 
     56 O         -76.3960   24.0155  -76.7871 O.2       3 UNK        -0.5091 
     57 CA        -78.6461   23.3174  -76.3624 C.3       3 UNK         0.0250 
     58 CB        -78.7353   21.8190  -76.0347 C.3       3 UNK        -0.1996 
     59 N         -79.7589   24.0378  -75.7375 N.am      3 UNK        -0.4254 
     60 C         -80.1075   25.2898  -76.0721 C.2       2 UNK         0.5004 
     61 O         -79.5620   25.9285  -76.9718 O.2       2 UNK        -0.5226 
     62 CA        -81.2127   25.9668  -75.2395 C.3       2 UNK         0.0269 
     63 CB        -82.5939   25.6892  -75.8525 C.3       2 UNK        -0.1926 
     64 N         -81.2173   25.5765  -73.8253 N.am      2 UNK        -0.4687 
     65 C         -80.1862   25.7505  -72.9869 C.2       1 UNK         0.5165 
     66 O         -79.1218   26.2696  -73.3195 O.2       1 UNK        -0.5079 
     67 H67       -78.8610   20.9383  -71.4366 H         1 UNK         0.0900 
     68 H68       -77.6876   21.7174  -72.5008 H         1 UNK         0.0900 
     69 H69       -77.7884   22.1873  -70.8024 H         1 UNK         0.0900 
     70 H70       -78.7701   24.1764  -70.5844 H         1 UNK         0.2959 
     71 H71       -81.3522   24.8252  -71.4290 H         1 UNK         0.1079 
     72 H72       -80.0121   25.8608  -69.5016 H         1 UNK         0.0837 
     73 H73       -79.1428   26.8175  -70.6722 H         1 UNK         0.0837 
     74 H74       -81.3502   29.7008  -69.4365 H         1 UNK         0.0685 
     75 H75       -80.0434   28.6920  -68.8711 H         1 UNK         0.0685 
     76 H76       -81.1527   29.7416  -72.3393 H         1 UNK         0.1434 
     77 H77       -77.4406   31.6994  -73.2042 H         1 UNK         0.1329 
     78 H78       -78.0165   29.7910  -69.4127 H         1 UNK         0.1335 
     79 H79       -76.1873   32.3001  -70.7186 H         1 UNK         0.0680 
     80 H80       -75.8954   30.7939  -69.8862 H         1 UNK         0.0680 
     81 H81       -74.8051   28.8512  -70.7128 H         1 UNK         0.1032 
     82 H82       -75.3672   28.4434  -72.3146 H         1 UNK         0.1032 
     83 H83       -72.5046   29.3534  -71.7252 H         1 UNK         0.0461 
     84 H84       -71.5517   25.6487  -71.7386 H         1 UNK         0.3453 
     85 H85       -71.4433   26.8032  -73.0475 H         1 UNK         0.3453 
     86 H86       -73.5572   27.9348  -74.1386 H         1 UNK         0.2984 
     87 H87       -72.9442   29.5319  -76.2790 H         1 UNK         0.0554 
     88 H88       -70.8145   30.7887  -76.3824 H         1 UNK         0.0847 
     89 H89       -70.8072   29.5079  -77.5826 H         1 UNK         0.0847 
     90 H90       -69.8909   29.3229  -76.0876 H         1 UNK         0.0847 
     91 H91       -72.9464   27.3569  -76.6893 H         1 UNK         0.3141 
     92 H92       -70.7948   24.7687  -76.4892 H         1 UNK         0.0743 
     93 H93       -72.8714   24.8532  -74.2505 H         1 UNK         0.0784 
     94 H94       -72.3564   23.3770  -75.0693 H         1 UNK         0.0784 
     95 H95       -71.2050   24.3194  -74.1401 H         1 UNK         0.0784 
     96 H96       -73.7313   25.0219  -76.6684 H         1 UNK         0.3213 
     97 H97       -73.5693   24.8911  -80.2544 H         1 UNK         0.0855 
     98 H98       -74.3866   22.8547  -78.1205 H         1 UNK         0.0814 
     99 H99       -73.2911   22.5744  -79.4646 H         1 UNK         0.0814 
    100 H100      -74.9869   22.9072  -79.7766 H         1 UNK         0.0814 
    101 H101      -75.6611   25.0060  -78.1864 H         1 UNK         0.3105 
    102 H102      -76.8225   28.1341  -79.6223 H         1 UNK         0.0547 
    103 H103      -77.6193   26.0927  -80.8369 H         1 UNK         0.0837 
    104 H104      -77.8521   25.2678  -79.3004 H         1 UNK         0.0837 
    105 H105      -78.8102   26.6912  -79.6933 H         1 UNK         0.0837 
    106 H106      -77.7738   26.7434  -77.3345 H         1 UNK         0.3020 
    107 H107      -76.4120   29.0555  -74.9427 H         1 UNK         0.1245 
    108 H108      -78.9671   28.5934  -74.5134 H         1 UNK         0.0781 
    109 H109      -79.1274   28.4003  -76.2273 H         1 UNK         0.0781 
    110 H110      -80.7894   30.5900  -74.5399 H         1 UNK         0.0836 
    111 H111      -80.0518   32.1647  -74.3626 H         1 UNK         0.0836 
    112 H112      -77.7931   26.6772  -74.4563 H         1 UNK         0.3022 
    113 H113      -75.0996   24.3475  -74.4276 H         1 UNK         0.0747 
    114 H114      -76.0795   23.9164  -72.1834 H         1 UNK         0.0793 
    115 H115      -75.1073   25.3757  -72.1679 H         1 UNK         0.0793 
    116 H116      -76.8580   25.4998  -72.1938 H         1 UNK         0.0793 
    117 H117      -77.9605   24.1966  -74.0572 H         1 UNK         0.3047 
    118 H118      -78.7321   23.4306  -77.4455 H         1 UNK         0.0822 
    119 H119      -79.6816   21.3956  -76.3718 H         1 UNK         0.0807 
    120 H120      -78.6458   21.6282  -74.9652 H         1 UNK         0.0807 
    121 H121      -77.9376   21.2650  -76.5315 H         1 UNK         0.0807 
    122 H122      -80.2206   23.5890  -74.9533 H         1 UNK         0.2946 
    123 H123      -81.0320   27.0429  -75.2804 H         1 UNK         0.1144 
    124 H124      -83.3768   26.2448  -75.3359 H         1 UNK         0.0793 
    125 H125      -82.8490   24.6295  -75.8113 H         1 UNK         0.0793 
    126 H126      -82.6230   25.9913  -76.9005 H         1 UNK         0.0793 
    127 H127      -82.0465   25.1087  -73.4878 H         1 UNK         0.2896 
@<TRIPOS>BOND
     1    1    2 1    
     2    1   67 1    
     3    1   68 1    
     4    1   69 1    
     5    2    3 2    
     6    2    4 am   BACKBONE|DICT|INTERRES
     7    4    5 1    
     8    4   70 1    
     9    5    6 1    
    10    5   65 1    
    11    5   71 1    
    12    6    7 1    
    13    6   72 1    
    14    6   73 1    
    15    7    8 1    
    16    8    9 1    
    17    8   74 1    
    18    8   75 1    
    19    9   10 ar   
    20    9   14 ar   
    21   10   11 ar   
    22   10   76 1    
    23   11   12 ar   
    24   11   48 1    
    25   12   13 ar   
    26   12   77 1    
    27   13   14 ar   
    28   13   15 1    
    29   14   78 1    
    30   15   16 1    
    31   15   79 1    
    32   15   80 1    
    33   16   17 1    
    34   17   18 1    
    35   17   81 1    
    36   17   82 1    
    37   18   19 1    
    38   18   22 1    
    39   18   83 1    
    40   19   20 am   BACKBONE|DICT|INTERRES
    41   19   21 2    
    42   20   84 1    
    43   20   85 1    
    44   22   23 am   BACKBONE|DICT|INTERRES
    45   22   86 1    
    46   23   24 2    
    47   23   25 1    
    48   25   26 1    
    49   25   27 1    
    50   25   87 1    
    51   26   88 1    
    52   26   89 1    
    53   26   90 1    
    54   27   28 am   BACKBONE|DICT|INTERRES
    55   27   91 1    
    56   28   29 2    
    57   28   30 1    
    58   30   31 1    
    59   30   32 1    
    60   30   92 1    
    61   31   93 1    
    62   31   94 1    
    63   31   95 1    
    64   32   33 am   BACKBONE|DICT|INTERRES
    65   32   96 1    
    66   33   34 2    
    67   33   35 1    
    68   35   36 1    
    69   35   37 1    
    70   35   97 1    
    71   36   98 1    
    72   36   99 1    
    73   36  100 1    
    74   37   38 am   BACKBONE|DICT|INTERRES
    75   37  101 1    
    76   38   39 2    
    77   38   40 1    
    78   40   41 1    
    79   40   42 1    
    80   40  102 1    
    81   41  103 1    
    82   41  104 1    
    83   41  105 1    
    84   42   43 am   BACKBONE|DICT|INTERRES
    85   42  106 1    
    86   43   44 2    
    87   43   45 1    
    88   45   46 1    
    89   45   49 1    
    90   45  107 1    
    91   46   47 1    
    92   46  108 1    
    93   46  109 1    
    94   47   48 1    
    95   48  110 1    
    96   48  111 1    
    97   49   50 am   BACKBONE|DICT|INTERRES
    98   49  112 1    
    99   50   51 2    
   100   50   52 1    
   101   52   53 1    
   102   52   54 1    
   103   52  113 1    
   104   53  114 1    
   105   53  115 1    
   106   53  116 1    
   107   54   55 am   BACKBONE|DICT|INTERRES
   108   54  117 1    
   109   55   56 2    
   110   55   57 1    
   111   57   58 1    
   112   57   59 1    
   113   57  118 1    
   114   58  119 1    
   115   58  120 1    
   116   58  121 1    
   117   59   60 am   BACKBONE|DICT|INTERRES
   118   59  122 1    
   119   60   61 2    
   120   60   62 1    
   121   62   63 1    
   122   62   64 1    
   123   62  123 1    
   124   63  124 1    
   125   63  125 1    
   126   63  126 1    
   127   64   65 am   BACKBONE|DICT|INTERRES
   128   64  127 1    
   129   65   66 2    
@<TRIPOS>SUBSTRUCTURE
     1 UNK         1 GROUP             0       ****    0 ROOT    
