@<TRIPOS>MOLECULE
3R135
127   129    1
SMALL
USER_CHARGES


@<TRIPOS>ATOM
      1 CA        -80.1295   29.3514  -70.6298 C.3       0 UNK        -0.1998 
      2 C         -81.2310   29.1360  -71.6561 C.2       0 UNK         0.4909 
      3 O         -82.3959   28.9906  -71.2855 O.2       0 UNK        -0.5240 
      4 N         -80.8710   29.1184  -72.9458 N.am      1 UNK        -0.4739 
      5 CA        -81.7912   28.9353  -74.0746 C.3       1 UNK         0.0864 
      6 C6        -81.2270   29.5721  -75.3754 C.3       11 UNK        -0.0881 
      7 S7        -79.9473   28.6092  -76.2614 S.3       11 UNK        -0.2682 
      8 C8        -78.3903   29.4398  -75.7876 C.3       11 UNK         0.0289 
      9 C9        -77.8462   29.0746  -74.4056 C.ar      11 UNK        -0.0687 
     10 C10       -78.1562   27.8599  -73.7840 C.ar      11 UNK        -0.0823 
     11 C11       -77.6320   27.5427  -72.5295 C.ar      11 UNK        -0.0830 
     12 C12       -76.7727   28.4400  -71.8969 C.ar      11 UNK        -0.1021 
     13 C13       -76.3734   29.6134  -72.5430 C.ar      11 UNK        -0.0753 
     14 C14       -76.9451   29.9409  -73.7772 C.ar      11 UNK        -0.0933 
     15 C15       -75.2736   30.4987  -71.9606 C.3       11 UNK         0.0166 
     16 S16       -73.9082   29.5859  -71.1461 S.3       11 UNK        -0.2615 
     17 C17       -73.5081   28.2333  -72.3175 C.3       11 UNK        -0.0865 
     18 CA        -72.1505   28.4217  -73.0412 C.3       10 UNK         0.0862 
     19 C         -71.6766   27.1391  -73.7875 C.2       10 UNK         0.5551 
     20 N         -70.6680   27.2421  -74.6450 N.am      10 UNK        -0.7319 
     21 O         -72.2202   26.0496  -73.6134 O.2       10 UNK        -0.5018 
     22 N         -72.2065   29.5537  -73.9737 N.am      10 UNK        -0.4509 
     23 C         -71.4885   30.6809  -73.9112 C.2       10 UNK         0.4899 
     24 O         -70.7091   30.9438  -72.9950 O.2       10 UNK        -0.4839 
     25 CA        -71.6240   31.6793  -75.0811 C.3       9 UNK         0.0222 
     26 CB        -70.2741   31.8572  -75.7982 C.3       9 UNK        -0.1966 
     27 N         -72.6271   31.2731  -76.0697 N.am      9 UNK        -0.4218 
     28 C         -73.9423   31.5111  -75.9773 C.2       9 UNK         0.5020 
     29 O         -74.4496   32.2222  -75.1104 O.2       9 UNK        -0.5274 
     30 CA        -74.8550   30.8296  -77.0162 C.3       8 UNK         0.0270 
     31 CB        -75.2908   31.8337  -78.0953 C.3       8 UNK        -0.1976 
     32 N         -74.2708   29.6457  -77.6613 N.am      8 UNK        -0.4313 
     33 C         -73.9382   28.5100  -77.0325 C.2       8 UNK         0.5041 
     34 O         -74.0866   28.3262  -75.8230 O.2       8 UNK        -0.5577 
     35 CA        -73.2602   27.4339  -77.8854 C.3       7 UNK         0.0284 
     36 CB        -71.8410   27.8844  -78.2934 C.3       7 UNK        -0.1958 
     37 N         -73.1896   26.1886  -77.1229 N.am      7 UNK        -0.4454 
     38 C         -72.9362   24.9819  -77.6418 C.2       7 UNK         0.5089 
     39 O         -72.7769   24.7778  -78.8463 O.2       7 UNK        -0.5125 
     40 CA        -72.8173   23.7971  -76.6688 C.3       6 UNK         0.0408 
     41 CB        -71.3524   23.5898  -76.2526 C.3       6 UNK        -0.1791 
     42 N         -73.6469   23.9211  -75.4678 N.am      6 UNK        -0.4762 
     43 C         -74.9664   23.6879  -75.4425 C.2       6 UNK         0.5007 
     44 O         -75.6378   23.4672  -76.4535 O.2       6 UNK        -0.5032 
     45 CA        -75.6346   23.6953  -74.0530 C.3       5 UNK         0.0783 
     46 C46       -75.8928   25.1349  -73.5665 C.3       11 UNK        -0.0857 
     47 S47       -76.4191   25.1665  -71.8166 S.3       11 UNK        -0.2512 
     48 C48       -77.9212   26.1928  -71.8937 C.3       11 UNK         0.0225 
     49 N         -76.8670   22.8994  -74.0590 N.am      5 UNK        -0.4615 
     50 C         -76.9020   21.5642  -73.9652 C.2       4 UNK         0.5053 
     51 O         -75.8959   20.8643  -73.8414 O.2       4 UNK        -0.5105 
     52 CA        -78.2837   20.8826  -73.9817 C.3       4 UNK         0.0263 
     53 CB        -78.7421   20.5760  -72.5463 C.3       4 UNK        -0.1981 
     54 N         -79.3246   21.6627  -74.6549 N.am      4 UNK        -0.4224 
     55 C         -79.3954   21.8744  -75.9766 C.2       3 UNK         0.4895 
     56 O         -78.6019   21.3906  -76.7844 O.2       3 UNK        -0.5091 
     57 CA        -80.5521   22.7514  -76.5011 C.3       3 UNK         0.0250 
     58 CB        -81.5204   21.9130  -77.3537 C.3       3 UNK        -0.1996 
     59 N         -81.3236   23.4526  -75.4656 N.am      3 UNK        -0.4254 
     60 C         -80.8625   24.4607  -74.7145 C.2       2 UNK         0.5004 
     61 O         -79.6964   24.8578  -74.7488 O.2       2 UNK        -0.5226 
     62 CA        -81.8512   25.0788  -73.7154 C.3       2 UNK         0.0269 
     63 CB        -81.7032   24.4154  -72.3356 C.3       2 UNK        -0.1926 
     64 N         -81.6059   26.5155  -73.5847 N.am      2 UNK        -0.4687 
     65 C         -82.2582   27.4704  -74.2636 C.2       1 UNK         0.5165 
     66 O         -83.2023   27.2366  -75.0206 O.2       1 UNK        -0.5079 
     67 H67       -79.2286   29.7606  -71.0863 H         1 UNK         0.0900 
     68 H68       -80.4605   30.0499  -69.8617 H         1 UNK         0.0900 
     69 H69       -79.8737   28.4088  -70.1472 H         1 UNK         0.0900 
     70 H70       -79.8952   29.2225  -73.1935 H         1 UNK         0.2959 
     71 H71       -82.6987   29.4928  -73.8304 H         1 UNK         0.1079 
     72 H72       -80.8516   30.5758  -75.1699 H         1 UNK         0.0837 
     73 H73       -82.0484   29.7182  -76.0793 H         1 UNK         0.0837 
     74 H74       -78.5192   30.5199  -75.8732 H         1 UNK         0.0685 
     75 H75       -77.6372   29.1586  -76.5242 H         1 UNK         0.0685 
     76 H76       -78.7909   27.1448  -74.2851 H         1 UNK         0.1434 
     77 H77       -76.3441   28.1757  -70.9401 H         1 UNK         0.1329 
     78 H78       -76.6519   30.8570  -74.2710 H         1 UNK         0.1335 
     79 H79       -74.8336   31.1143  -72.7453 H         1 UNK         0.0680 
     80 H80       -75.7182   31.1858  -71.2400 H         1 UNK         0.0680 
     81 H81       -73.5045   27.3111  -71.7336 H         1 UNK         0.1032 
     82 H82       -74.2974   28.1059  -73.0586 H         1 UNK         0.1032 
     83 H83       -71.3929   28.6015  -72.2769 H         1 UNK         0.0461 
     84 H84       -70.3403   26.4225  -75.1273 H         1 UNK         0.3453 
     85 H85       -70.2077   28.1270  -74.7829 H         1 UNK         0.3453 
     86 H86       -72.8291   29.3979  -74.7607 H         1 UNK         0.2984 
     87 H87       -71.9111   32.6427  -74.6547 H         1 UNK         0.0554 
     88 H88       -69.5059   32.2074  -75.1072 H         1 UNK         0.0847 
     89 H89       -70.3437   32.5942  -76.5985 H         1 UNK         0.0847 
     90 H90       -69.9187   30.9217  -76.2321 H         1 UNK         0.0847 
     91 H91       -72.3040   30.6960  -76.8318 H         1 UNK         0.3141 
     92 H92       -75.7449   30.5013  -76.4803 H         1 UNK         0.0743 
     93 H93       -74.4445   32.1833  -78.6879 H         1 UNK         0.0784 
     94 H94       -76.0212   31.3946  -78.7753 H         1 UNK         0.0784 
     95 H95       -75.7583   32.7113  -77.6461 H         1 UNK         0.0784 
     96 H96       -74.1093   29.7125  -78.6567 H         1 UNK         0.3213 
     97 H97       -73.8698   27.2699  -78.7766 H         1 UNK         0.0855 
     98 H98       -71.2096   28.0593  -77.4215 H         1 UNK         0.0814 
     99 H99       -71.8643   28.8084  -78.8720 H         1 UNK         0.0814 
    100 H100      -71.3461   27.1386  -78.9152 H         1 UNK         0.0814 
    101 H101      -73.3583   26.2933  -76.1289 H         1 UNK         0.3105 
    102 H102      -73.1339   22.9025  -77.2099 H         1 UNK         0.0547 
    103 H103      -71.2337   22.6841  -75.6578 H         1 UNK         0.0837 
    104 H104      -70.9758   24.4272  -75.6659 H         1 UNK         0.0837 
    105 H105      -70.7078   23.4875  -77.1269 H         1 UNK         0.0837 
    106 H106      -73.1682   24.1831  -74.6138 H         1 UNK         0.3020 
    107 H107      -74.9323   23.2271  -73.3586 H         1 UNK         0.1245 
    108 H108      -76.6402   25.6085  -74.2040 H         1 UNK         0.0781 
    109 H109      -74.9930   25.7473  -73.6470 H         1 UNK         0.0781 
    110 H110      -78.3112   26.3379  -70.8855 H         1 UNK         0.0836 
    111 H111      -78.6865   25.6540  -72.4503 H         1 UNK         0.0836 
    112 H112      -77.7290   23.4068  -74.2052 H         1 UNK         0.3022 
    113 H113      -78.1733   19.9357  -74.5147 H         1 UNK         0.0747 
    114 H114      -79.6804   20.0211  -72.5379 H         1 UNK         0.0793 
    115 H115      -78.0036   19.9671  -72.0226 H         1 UNK         0.0793 
    116 H116      -78.8836   21.4877  -71.9641 H         1 UNK         0.0793 
    117 H117      -80.0238   22.0931  -74.0689 H         1 UNK         0.3047 
    118 H118      -80.1006   23.5087  -77.1459 H         1 UNK         0.0822 
    119 H119      -82.2914   22.5354  -77.8085 H         1 UNK         0.0807 
    120 H120      -82.0148   21.1417  -76.7617 H         1 UNK         0.0807 
    121 H121      -80.9941   21.4112  -78.1671 H         1 UNK         0.0807 
    122 H122      -82.2853   23.1629  -75.3548 H         1 UNK         0.2946 
    123 H123      -82.8703   24.9095  -74.0715 H         1 UNK         0.1144 
    124 H124      -82.3917   24.8527  -71.6122 H         1 UNK         0.0793 
    125 H125      -80.6937   24.5159  -71.9370 H         1 UNK         0.0793 
    126 H126      -81.9270   23.3491  -72.3880 H         1 UNK         0.0793 
    127 H127      -80.8198   26.7927  -73.0171 H         1 UNK         0.2896 
@<TRIPOS>BOND
     1    1    2 1    
     2    1   67 1    
     3    1   68 1    
     4    1   69 1    
     5    2    3 2    
     6    2    4 am   BACKBONE|DICT|INTERRES
     7    4    5 1    
     8    4   70 1    
     9    5    6 1    
    10    5   65 1    
    11    5   71 1    
    12    6    7 1    
    13    6   72 1    
    14    6   73 1    
    15    7    8 1    
    16    8    9 1    
    17    8   74 1    
    18    8   75 1    
    19    9   10 ar   
    20    9   14 ar   
    21   10   11 ar   
    22   10   76 1    
    23   11   12 ar   
    24   11   48 1    
    25   12   13 ar   
    26   12   77 1    
    27   13   14 ar   
    28   13   15 1    
    29   14   78 1    
    30   15   16 1    
    31   15   79 1    
    32   15   80 1    
    33   16   17 1    
    34   17   18 1    
    35   17   81 1    
    36   17   82 1    
    37   18   19 1    
    38   18   22 1    
    39   18   83 1    
    40   19   20 am   BACKBONE|DICT|INTERRES
    41   19   21 2    
    42   20   84 1    
    43   20   85 1    
    44   22   23 am   BACKBONE|DICT|INTERRES
    45   22   86 1    
    46   23   24 2    
    47   23   25 1    
    48   25   26 1    
    49   25   27 1    
    50   25   87 1    
    51   26   88 1    
    52   26   89 1    
    53   26   90 1    
    54   27   28 am   BACKBONE|DICT|INTERRES
    55   27   91 1    
    56   28   29 2    
    57   28   30 1    
    58   30   31 1    
    59   30   32 1    
    60   30   92 1    
    61   31   93 1    
    62   31   94 1    
    63   31   95 1    
    64   32   33 am   BACKBONE|DICT|INTERRES
    65   32   96 1    
    66   33   34 2    
    67   33   35 1    
    68   35   36 1    
    69   35   37 1    
    70   35   97 1    
    71   36   98 1    
    72   36   99 1    
    73   36  100 1    
    74   37   38 am   BACKBONE|DICT|INTERRES
    75   37  101 1    
    76   38   39 2    
    77   38   40 1    
    78   40   41 1    
    79   40   42 1    
    80   40  102 1    
    81   41  103 1    
    82   41  104 1    
    83   41  105 1    
    84   42   43 am   BACKBONE|DICT|INTERRES
    85   42  106 1    
    86   43   44 2    
    87   43   45 1    
    88   45   46 1    
    89   45   49 1    
    90   45  107 1    
    91   46   47 1    
    92   46  108 1    
    93   46  109 1    
    94   47   48 1    
    95   48  110 1    
    96   48  111 1    
    97   49   50 am   BACKBONE|DICT|INTERRES
    98   49  112 1    
    99   50   51 2    
   100   50   52 1    
   101   52   53 1    
   102   52   54 1    
   103   52  113 1    
   104   53  114 1    
   105   53  115 1    
   106   53  116 1    
   107   54   55 am   BACKBONE|DICT|INTERRES
   108   54  117 1    
   109   55   56 2    
   110   55   57 1    
   111   57   58 1    
   112   57   59 1    
   113   57  118 1    
   114   58  119 1    
   115   58  120 1    
   116   58  121 1    
   117   59   60 am   BACKBONE|DICT|INTERRES
   118   59  122 1    
   119   60   61 2    
   120   60   62 1    
   121   62   63 1    
   122   62   64 1    
   123   62  123 1    
   124   63  124 1    
   125   63  125 1    
   126   63  126 1    
   127   64   65 am   BACKBONE|DICT|INTERRES
   128   64  127 1    
   129   65   66 2    
@<TRIPOS>SUBSTRUCTURE
     1 UNK         1 GROUP             0       ****    0 ROOT    
