@<TRIPOS>MOLECULE
3R135
127   129    1
SMALL
USER_CHARGES


@<TRIPOS>ATOM
      1 CA        -85.2247   29.1525  -74.4109 C.3       0 UNK        -0.1998 
      2 C         -84.0191   28.7773  -75.2594 C.2       0 UNK         0.4909 
      3 O         -84.1021   28.8037  -76.4875 O.2       0 UNK        -0.5240 
      4 N         -82.8993   28.4254  -74.6137 N.am      1 UNK        -0.4739 
      5 CA        -81.6395   28.0435  -75.2706 C.3       1 UNK         0.0864 
      6 C6        -80.4210   28.2044  -74.3257 C.3       11 UNK        -0.0881 
      7 S7        -80.2122   29.9356  -73.7843 S.3       11 UNK        -0.2682 
      8 C8        -80.3792   29.8009  -71.9761 C.3       11 UNK         0.0289 
      9 C9        -79.0760   29.3563  -71.3290 C.ar      11 UNK        -0.0687 
     10 C10       -78.8832   28.0236  -70.9531 C.ar      11 UNK        -0.0823 
     11 C11       -77.6763   27.6187  -70.3726 C.ar      11 UNK        -0.0830 
     12 C12       -76.6719   28.5641  -70.1387 C.ar      11 UNK        -0.1021 
     13 C13       -76.8409   29.8901  -70.5448 C.ar      11 UNK        -0.0753 
     14 C14       -78.0500   30.2834  -71.1248 C.ar      11 UNK        -0.0933 
     15 C15       -75.7041   30.8898  -70.4057 C.3       11 UNK         0.0166 
     16 S16       -74.6491   30.8880  -71.8931 S.3       11 UNK        -0.2615 
     17 C17       -73.5874   29.4318  -71.5962 C.3       11 UNK        -0.0865 
     18 CA        -72.2275   29.5440  -72.3375 C.3       10 UNK         0.0862 
     19 C         -71.1625   28.5538  -71.7736 C.2       10 UNK         0.5551 
     20 N         -70.3658   27.8779  -72.5928 N.am      10 UNK        -0.7319 
     21 O         -71.0409   28.4045  -70.5602 O.2       10 UNK        -0.5018 
     22 N         -72.4027   29.4576  -73.7981 N.am      10 UNK        -0.4509 
     23 C         -71.6573   30.1038  -74.7015 C.2       10 UNK         0.4899 
     24 O         -70.7942   30.9355  -74.4151 O.2       10 UNK        -0.4839 
     25 CA        -71.9010   29.7078  -76.1713 C.3       9 UNK         0.0222 
     26 CB        -70.9579   30.4271  -77.1584 C.3       9 UNK        -0.1966 
     27 N         -71.8450   28.2530  -76.3672 N.am      9 UNK        -0.4218 
     28 C         -70.8261   27.4264  -76.0826 C.2       9 UNK         0.5020 
     29 O         -69.7467   27.8026  -75.6246 O.2       9 UNK        -0.5274 
     30 CA        -71.0472   25.9162  -76.2923 C.3       8 UNK         0.0270 
     31 CB        -71.1705   25.2044  -74.9346 C.3       8 UNK        -0.1976 
     32 N         -72.2246   25.5928  -77.1001 N.am      8 UNK        -0.4313 
     33 C         -72.3249   25.7653  -78.4248 C.2       8 UNK         0.5041 
     34 O         -71.4125   26.1890  -79.1348 O.2       8 UNK        -0.5577 
     35 CA        -73.6871   25.4341  -79.0545 C.3       7 UNK         0.0284 
     36 CB        -73.8139   23.9263  -79.3278 C.3       7 UNK        -0.1958 
     37 N         -74.7973   25.8782  -78.2081 N.am      7 UNK        -0.4454 
     38 C         -75.1785   27.1556  -78.0696 C.2       7 UNK         0.5089 
     39 O         -74.6685   28.0940  -78.6811 O.2       7 UNK        -0.5125 
     40 CA        -76.2988   27.4379  -77.0556 C.3       6 UNK         0.0408 
     41 CB        -77.6778   27.2504  -77.7046 C.3       6 UNK        -0.1791 
     42 N         -76.1992   26.6022  -75.8570 N.am      6 UNK        -0.4762 
     43 C         -75.2500   26.7484  -74.9185 C.2       6 UNK         0.5007 
     44 O         -74.3767   27.6157  -74.9550 O.2       6 UNK        -0.5032 
     45 CA        -75.2647   25.7597  -73.7353 C.3       5 UNK         0.0783 
     46 C46       -76.2140   26.3059  -72.6484 C.3       11 UNK        -0.0857 
     47 S47       -76.0295   25.4580  -71.0436 S.3       11 UNK        -0.2512 
     48 C48       -77.4257   26.1440  -70.0783 C.3       11 UNK         0.0225 
     49 N         -75.6364   24.3951  -74.1136 N.am      5 UNK        -0.4615 
     50 C         -75.1361   23.6644  -75.1183 C.2       4 UNK         0.5053 
     51 O         -74.1806   24.0134  -75.8099 O.2       4 UNK        -0.5105 
     52 CA        -75.8692   22.3513  -75.4530 C.3       4 UNK         0.0263 
     53 CB        -75.0754   21.1479  -74.9215 C.3       4 UNK        -0.1981 
     54 N         -77.2499   22.2872  -74.9491 N.am      4 UNK        -0.4224 
     55 C         -78.2334   23.1437  -75.2641 C.2       3 UNK         0.4895 
     56 O         -78.1002   24.0912  -76.0448 O.2       3 UNK        -0.5091 
     57 CA        -79.5541   22.9550  -74.5118 C.3       3 UNK         0.0250 
     58 CB        -79.4314   23.4725  -73.0636 C.3       3 UNK        -0.1996 
     59 N         -80.6065   23.6880  -75.2066 N.am      3 UNK        -0.4254 
     60 C         -81.9193   23.4591  -75.1060 C.2       2 UNK         0.5004 
     61 O         -82.4035   22.5679  -74.4051 O.2       2 UNK        -0.5226 
     62 CA        -82.8400   24.4108  -75.8942 C.3       2 UNK         0.0269 
     63 CB        -84.3300   24.0404  -75.7672 C.3       2 UNK        -0.1926 
     64 N         -82.6621   25.7990  -75.4596 N.am      2 UNK        -0.4687 
     65 C         -81.6833   26.6196  -75.8672 C.2       1 UNK         0.5165 
     66 O         -80.8215   26.2791  -76.6778 O.2       1 UNK        -0.5079 
     67 H67       -86.0585   28.4854  -74.6280 H         1 UNK         0.0900 
     68 H68       -85.0088   29.0903  -73.3445 H         1 UNK         0.0900 
     69 H69       -85.5369   30.1723  -74.6340 H         1 UNK         0.0900 
     70 H70       -82.8819   28.4395  -73.6041 H         1 UNK         0.2959 
     71 H71       -81.4885   28.7157  -76.1188 H         1 UNK         0.1079 
     72 H72       -80.5151   27.5452  -73.4615 H         1 UNK         0.0837 
     73 H73       -79.4980   27.9091  -74.8285 H         1 UNK         0.0837 
     74 H74       -81.1953   29.1227  -71.7229 H         1 UNK         0.0685 
     75 H75       -80.6631   30.7766  -71.5787 H         1 UNK         0.0685 
     76 H76       -79.6630   27.2975  -71.1367 H         1 UNK         0.1434 
     77 H77       -75.7323   28.2495  -69.7055 H         1 UNK         0.1329 
     78 H78       -78.1842   31.3080  -71.4441 H         1 UNK         0.1335 
     79 H79       -76.1104   31.8929  -70.2669 H         1 UNK         0.0680 
     80 H80       -75.1095   30.6789  -69.5156 H         1 UNK         0.0680 
     81 H81       -73.4327   29.3478  -70.5192 H         1 UNK         0.1032 
     82 H82       -74.1152   28.5272  -71.8975 H         1 UNK         0.1032 
     83 H83       -71.8242   30.5309  -72.1030 H         1 UNK         0.0461 
     84 H84       -70.3858   28.0337  -73.5917 H         1 UNK         0.3453 
     85 H85       -69.6806   27.2540  -72.1980 H         1 UNK         0.3453 
     86 H86       -73.0901   28.7877  -74.1331 H         1 UNK         0.2984 
     87 H87       -72.9224   30.0098  -76.4082 H         1 UNK         0.0554 
     88 H88       -71.1788   30.1503  -78.1893 H         1 UNK         0.0847 
     89 H89       -69.9109   30.1911  -76.9652 H         1 UNK         0.0847 
     90 H90       -71.0662   31.5097  -77.0830 H         1 UNK         0.0847 
     91 H91       -72.7119   27.8264  -76.6656 H         1 UNK         0.3141 
     92 H92       -70.1658   25.5260  -76.8053 H         1 UNK         0.0743 
     93 H93       -72.0185   25.5786  -74.3606 H         1 UNK         0.0784 
     94 H94       -71.2986   24.1288  -75.0590 H         1 UNK         0.0784 
     95 H95       -70.2752   25.3550  -74.3300 H         1 UNK         0.0784 
     96 H96       -73.0054   25.1562  -76.6113 H         1 UNK         0.3213 
     97 H97       -73.7498   25.9587  -80.0107 H         1 UNK         0.0855 
     98 H98       -73.7604   23.3383  -78.4109 H         1 UNK         0.0814 
     99 H99       -73.0111   23.5819  -79.9812 H         1 UNK         0.0814 
    100 H100      -74.7563   23.6910  -79.8226 H         1 UNK         0.0814 
    101 H101      -75.2396   25.1796  -77.6274 H         1 UNK         0.3105 
    102 H102      -76.2116   28.4829  -76.7496 H         1 UNK         0.0547 
    103 H103      -77.7657   27.8403  -78.6179 H         1 UNK         0.0837 
    104 H104      -77.8670   26.2088  -77.9676 H         1 UNK         0.0837 
    105 H105      -78.4738   27.5751  -77.0361 H         1 UNK         0.0837 
    106 H106      -76.8689   25.8447  -75.7695 H         1 UNK         0.3020 
    107 H107      -74.2495   25.7241  -73.3356 H         1 UNK         0.1245 
    108 H108      -77.2546   26.2337  -72.9718 H         1 UNK         0.0781 
    109 H109      -76.0238   27.3677  -72.4878 H         1 UNK         0.0781 
    110 H110      -77.2218   26.0161  -69.0144 H         1 UNK         0.0836 
    111 H111      -78.3167   25.5519  -70.2929 H         1 UNK         0.0836 
    112 H112      -76.4004   23.9980  -73.5889 H         1 UNK         0.3022 
    113 H113      -75.9138   22.2801  -76.5417 H         1 UNK         0.0747 
    114 H114      -75.5259   20.2052  -75.2326 H         1 UNK         0.0793 
    115 H115      -74.0528   21.1562  -75.3024 H         1 UNK         0.0793 
    116 H116      -75.0170   21.1512  -73.8323 H         1 UNK         0.0793 
    117 H117      -77.4493   21.5464  -74.2914 H         1 UNK         0.3047 
    118 H118      -79.7997   21.8908  -74.5080 H         1 UNK         0.0822 
    119 H119      -79.1998   24.5380  -73.0356 H         1 UNK         0.0807 
    120 H120      -78.6443   22.9512  -72.5174 H         1 UNK         0.0807 
    121 H121      -80.3569   23.3206  -72.5080 H         1 UNK         0.0807 
    122 H122      -80.2772   24.4267  -75.8233 H         1 UNK         0.2946 
    123 H123      -82.5649   24.3257  -76.9484 H         1 UNK         0.1144 
    124 H124      -84.9545   24.6985  -76.3719 H         1 UNK         0.0793 
    125 H125      -84.6770   24.1037  -74.7351 H         1 UNK         0.0793 
    126 H126      -84.5098   23.0207  -76.1107 H         1 UNK         0.0793 
    127 H127      -83.3155   26.1474  -74.7733 H         1 UNK         0.2896 
@<TRIPOS>BOND
     1    1    2 1    
     2    1   67 1    
     3    1   68 1    
     4    1   69 1    
     5    2    3 2    
     6    2    4 am   BACKBONE|DICT|INTERRES
     7    4    5 1    
     8    4   70 1    
     9    5    6 1    
    10    5   65 1    
    11    5   71 1    
    12    6    7 1    
    13    6   72 1    
    14    6   73 1    
    15    7    8 1    
    16    8    9 1    
    17    8   74 1    
    18    8   75 1    
    19    9   10 ar   
    20    9   14 ar   
    21   10   11 ar   
    22   10   76 1    
    23   11   12 ar   
    24   11   48 1    
    25   12   13 ar   
    26   12   77 1    
    27   13   14 ar   
    28   13   15 1    
    29   14   78 1    
    30   15   16 1    
    31   15   79 1    
    32   15   80 1    
    33   16   17 1    
    34   17   18 1    
    35   17   81 1    
    36   17   82 1    
    37   18   19 1    
    38   18   22 1    
    39   18   83 1    
    40   19   20 am   BACKBONE|DICT|INTERRES
    41   19   21 2    
    42   20   84 1    
    43   20   85 1    
    44   22   23 am   BACKBONE|DICT|INTERRES
    45   22   86 1    
    46   23   24 2    
    47   23   25 1    
    48   25   26 1    
    49   25   27 1    
    50   25   87 1    
    51   26   88 1    
    52   26   89 1    
    53   26   90 1    
    54   27   28 am   BACKBONE|DICT|INTERRES
    55   27   91 1    
    56   28   29 2    
    57   28   30 1    
    58   30   31 1    
    59   30   32 1    
    60   30   92 1    
    61   31   93 1    
    62   31   94 1    
    63   31   95 1    
    64   32   33 am   BACKBONE|DICT|INTERRES
    65   32   96 1    
    66   33   34 2    
    67   33   35 1    
    68   35   36 1    
    69   35   37 1    
    70   35   97 1    
    71   36   98 1    
    72   36   99 1    
    73   36  100 1    
    74   37   38 am   BACKBONE|DICT|INTERRES
    75   37  101 1    
    76   38   39 2    
    77   38   40 1    
    78   40   41 1    
    79   40   42 1    
    80   40  102 1    
    81   41  103 1    
    82   41  104 1    
    83   41  105 1    
    84   42   43 am   BACKBONE|DICT|INTERRES
    85   42  106 1    
    86   43   44 2    
    87   43   45 1    
    88   45   46 1    
    89   45   49 1    
    90   45  107 1    
    91   46   47 1    
    92   46  108 1    
    93   46  109 1    
    94   47   48 1    
    95   48  110 1    
    96   48  111 1    
    97   49   50 am   BACKBONE|DICT|INTERRES
    98   49  112 1    
    99   50   51 2    
   100   50   52 1    
   101   52   53 1    
   102   52   54 1    
   103   52  113 1    
   104   53  114 1    
   105   53  115 1    
   106   53  116 1    
   107   54   55 am   BACKBONE|DICT|INTERRES
   108   54  117 1    
   109   55   56 2    
   110   55   57 1    
   111   57   58 1    
   112   57   59 1    
   113   57  118 1    
   114   58  119 1    
   115   58  120 1    
   116   58  121 1    
   117   59   60 am   BACKBONE|DICT|INTERRES
   118   59  122 1    
   119   60   61 2    
   120   60   62 1    
   121   62   63 1    
   122   62   64 1    
   123   62  123 1    
   124   63  124 1    
   125   63  125 1    
   126   63  126 1    
   127   64   65 am   BACKBONE|DICT|INTERRES
   128   64  127 1    
   129   65   66 2    
@<TRIPOS>SUBSTRUCTURE
     1 UNK         1 GROUP             0       ****    0 ROOT    
