@<TRIPOS>MOLECULE
3R135
127   129    1
SMALL
USER_CHARGES


@<TRIPOS>ATOM
      1 CA        -81.7040   25.6400  -70.3826 C.3       0 UNK        -0.1998 
      2 C         -82.5590   26.2787  -71.4664 C.2       0 UNK         0.4909 
      3 O         -83.6815   25.8324  -71.7040 O.2       0 UNK        -0.5240 
      4 N         -82.0381   27.3250  -72.1207 N.am      1 UNK        -0.4739 
      5 CA        -82.6906   28.0412  -73.2254 C.3       1 UNK         0.0864 
      6 C6        -82.0385   29.4240  -73.4922 C.3       11 UNK        -0.0881 
      7 S7        -80.2243   29.3553  -73.7109 S.3       11 UNK        -0.2682 
      8 C8        -79.6560   29.9775  -72.0974 C.3       11 UNK         0.0289 
      9 C9        -78.2621   29.4604  -71.7881 C.ar      11 UNK        -0.0687 
     10 C10       -78.1005   28.1718  -71.2729 C.ar      11 UNK        -0.0823 
     11 C11       -76.8250   27.6563  -71.0200 C.ar      11 UNK        -0.0830 
     12 C12       -75.7121   28.4692  -71.2573 C.ar      11 UNK        -0.1021 
     13 C13       -75.8551   29.7744  -71.7412 C.ar      11 UNK        -0.0753 
     14 C14       -77.1394   30.2620  -72.0109 C.ar      11 UNK        -0.0933 
     15 C15       -74.6026   30.6357  -71.9040 C.3       11 UNK         0.0166 
     16 S16       -74.6814   31.9373  -73.1849 S.3       11 UNK        -0.2615 
     17 C17       -74.8772   30.9731  -74.7245 C.3       11 UNK        -0.0865 
     18 CA        -73.6060   30.7831  -75.6064 C.3       10 UNK         0.0862 
     19 C         -72.9255   32.0987  -76.0947 C.2       10 UNK         0.5551 
     20 N         -71.6196   32.1161  -76.3327 N.am      10 UNK        -0.7319 
     21 O         -73.5970   33.1033  -76.3181 O.2       10 UNK        -0.5018 
     22 N         -72.7225   29.7063  -75.1262 N.am      10 UNK        -0.4509 
     23 C         -71.8157   29.7487  -74.1404 C.2       10 UNK         0.4899 
     24 O         -71.5354   30.7540  -73.4891 O.2       10 UNK        -0.4839 
     25 CA        -71.0877   28.4324  -73.8154 C.3       9 UNK         0.0222 
     26 CB        -71.8846   27.6292  -72.7737 C.3       9 UNK        -0.1966 
     27 N         -70.8348   27.5827  -74.9812 N.am      9 UNK        -0.4218 
     28 C         -70.0709   27.8913  -76.0363 C.2       9 UNK         0.5020 
     29 O         -69.4845   28.9674  -76.1617 O.2       9 UNK        -0.5274 
     30 CA        -69.9347   26.8316  -77.1493 C.3       8 UNK         0.0270 
     31 CB        -68.7950   25.8420  -76.8364 C.3       8 UNK        -0.1976 
     32 N         -71.1841   26.1311  -77.4904 N.am      8 UNK        -0.4313 
     33 C         -71.9185   25.3007  -76.7363 C.2       8 UNK         0.5041 
     34 O         -71.6117   24.9458  -75.5958 O.2       8 UNK        -0.5577 
     35 CA        -73.2644   24.8505  -77.3325 C.3       7 UNK         0.0284 
     36 CB        -73.3619   23.3150  -77.3413 C.3       7 UNK        -0.1958 
     37 N         -74.4117   25.4092  -76.6053 N.am      7 UNK        -0.4454 
     38 C         -74.6026   26.7009  -76.2978 C.2       7 UNK         0.5089 
     39 O         -73.8446   27.6027  -76.6553 O.2       7 UNK        -0.5125 
     40 CA        -75.8362   27.0828  -75.4584 C.3       6 UNK         0.0408 
     41 CB        -76.8219   27.9282  -76.2800 C.3       6 UNK        -0.1791 
     42 N         -76.5595   25.9621  -74.8579 N.am      6 UNK        -0.4762 
     43 C         -76.1223   25.2349  -73.8193 C.2       6 UNK         0.5007 
     44 O         -74.9943   25.3313  -73.3371 O.2       6 UNK        -0.5032 
     45 CA        -77.1312   24.2330  -73.2298 C.3       5 UNK         0.0783 
     46 C46       -78.2524   24.9639  -72.4404 C.3       11 UNK        -0.0857 
     47 S47       -77.9655   25.0514  -70.6402 S.3       11 UNK        -0.2512 
     48 C48       -76.5957   26.2524  -70.4536 C.3       11 UNK         0.0225 
     49 N         -77.6847   23.4170  -74.3101 N.am      5 UNK        -0.4615 
     50 C         -77.1146   22.3092  -74.8014 C.2       4 UNK         0.5053 
     51 O         -76.1030   21.7924  -74.3278 O.2       4 UNK        -0.5105 
     52 CA        -77.7782   21.6687  -76.0359 C.3       4 UNK         0.0263 
     53 CB        -78.7420   20.5507  -75.6069 C.3       4 UNK        -0.1981 
     54 N         -78.4993   22.6311  -76.8746 N.am      4 UNK        -0.4224 
     55 C         -77.9195   23.6285  -77.5582 C.2       3 UNK         0.4895 
     56 O         -76.7044   23.8013  -77.6120 O.2       3 UNK        -0.5091 
     57 CA        -78.8474   24.6328  -78.2627 C.3       3 UNK         0.0250 
     58 CB        -79.0831   24.2113  -79.7217 C.3       3 UNK        -0.1996 
     59 N         -80.1400   24.8310  -77.5964 N.am      3 UNK        -0.4254 
     60 C         -80.3084   25.2606  -76.3380 C.2       2 UNK         0.5004 
     61 O         -79.3810   25.5001  -75.5578 O.2       2 UNK        -0.5226 
     62 CA        -81.7576   25.3751  -75.8586 C.3       2 UNK         0.0269 
     63 CB        -82.2921   23.9998  -75.4214 C.3       2 UNK        -0.1926 
     64 N         -81.8234   26.2917  -74.7253 N.am      2 UNK        -0.4687 
     65 C         -82.7906   27.1923  -74.5119 C.2       1 UNK         0.5165 
     66 O         -83.7489   27.3566  -75.2692 O.2       1 UNK        -0.5079 
     67 H67       -81.3310   24.6731  -70.7196 H         1 UNK         0.0900 
     68 H68       -82.2949   25.4820  -69.4808 H         1 UNK         0.0900 
     69 H69       -80.8499   26.2621  -70.1176 H         1 UNK         0.0900 
     70 H70       -81.1093   27.6469  -71.8958 H         1 UNK         0.2959 
     71 H71       -83.7219   28.2293  -72.9172 H         1 UNK         0.1079 
     72 H72       -82.2746   30.1006  -72.6695 H         1 UNK         0.0837 
     73 H73       -82.4757   29.8923  -74.3764 H         1 UNK         0.0837 
     74 H74       -79.6744   31.0685  -72.1049 H         1 UNK         0.0685 
     75 H75       -80.3392   29.6636  -71.3068 H         1 UNK         0.0685 
     76 H76       -78.9759   27.5714  -71.0789 H         1 UNK         0.1434 
     77 H77       -74.7229   28.0869  -71.0437 H         1 UNK         0.1329 
     78 H78       -77.2719   31.2671  -72.3857 H         1 UNK         0.1335 
     79 H79       -74.3974   31.1167  -70.9471 H         1 UNK         0.0680 
     80 H80       -73.7455   29.9978  -72.1101 H         1 UNK         0.0680 
     81 H81       -75.6439   31.4781  -75.3144 H         1 UNK         0.1032 
     82 H82       -75.3082   30.0022  -74.4845 H         1 UNK         0.1032 
     83 H83       -73.9834   30.3670  -76.5411 H         1 UNK         0.0461 
     84 H84       -71.0611   31.2955  -76.1526 H         1 UNK         0.3453 
     85 H85       -71.1864   32.9624  -76.6662 H         1 UNK         0.3453 
     86 H86       -72.8566   28.8247  -75.6146 H         1 UNK         0.2984 
     87 H87       -70.1185   28.6880  -73.3825 H         1 UNK         0.0554 
     88 H88       -72.0396   28.2122  -71.8651 H         1 UNK         0.0847 
     89 H89       -72.8675   27.3409  -73.1507 H         1 UNK         0.0847 
     90 H90       -71.3586   26.7189  -72.4854 H         1 UNK         0.0847 
     91 H91       -71.2500   26.6520  -74.9813 H         1 UNK         0.3141 
     92 H92       -69.6521   27.3734  -78.0535 H         1 UNK         0.0743 
     93 H93       -67.8523   26.3706  -76.6886 H         1 UNK         0.0784 
     94 H94       -68.9877   25.2678  -75.9297 H         1 UNK         0.0784 
     95 H95       -68.6464   25.1371  -77.6543 H         1 UNK         0.0784 
     96 H96       -71.5751   26.3975  -78.3842 H         1 UNK         0.3213 
     97 H97       -73.3305   25.2004  -78.3644 H         1 UNK         0.0855 
     98 H98       -72.4892   22.8696  -77.8209 H         1 UNK         0.0814 
     99 H99       -74.2375   22.9728  -77.8917 H         1 UNK         0.0814 
    100 H100      -73.4211   22.9097  -76.3301 H         1 UNK         0.0814 
    101 H101      -75.1338   24.7537  -76.3363 H         1 UNK         0.3105 
    102 H102      -75.4694   27.7017  -74.6375 H         1 UNK         0.0547 
    103 H103      -76.3312   28.8056  -76.7032 H         1 UNK         0.0837 
    104 H104      -77.2446   27.3603  -77.1083 H         1 UNK         0.0837 
    105 H105      -77.6467   28.2861  -75.6626 H         1 UNK         0.0837 
    106 H106      -77.5115   25.8123  -75.1829 H         1 UNK         0.3020 
    107 H107      -76.5876   23.5759  -72.5464 H         1 UNK         0.1245 
    108 H108      -79.1916   24.4192  -72.5508 H         1 UNK         0.0781 
    109 H109      -78.4668   25.9563  -72.8402 H         1 UNK         0.0781 
    110 H110      -75.6939   25.8195  -70.8861 H         1 UNK         0.0836 
    111 H111      -76.3900   26.3547  -69.3874 H         1 UNK         0.0836 
    112 H112      -78.4809   23.8130  -74.7950 H         1 UNK         0.3022 
    113 H113      -76.9843   21.2255  -76.6410 H         1 UNK         0.0747 
    114 H114      -79.1591   20.0324  -76.4706 H         1 UNK         0.0793 
    115 H115      -78.2272   19.8035  -75.0010 H         1 UNK         0.0793 
    116 H116      -79.5711   20.9370  -75.0125 H         1 UNK         0.0793 
    117 H117      -79.5056   22.5573  -76.8960 H         1 UNK         0.3047 
    118 H118      -78.3334   25.5953  -78.2676 H         1 UNK         0.0822 
    119 H119      -79.6499   24.9661  -80.2672 H         1 UNK         0.0807 
    120 H120      -79.6267   23.2680  -79.7882 H         1 UNK         0.0807 
    121 H121      -78.1361   24.0792  -80.2473 H         1 UNK         0.0807 
    122 H122      -80.9603   24.6408  -78.1547 H         1 UNK         0.2946 
    123 H123      -82.3604   25.7578  -76.6857 H         1 UNK         0.1144 
    124 H124      -83.3235   24.0701  -75.0753 H         1 UNK         0.0793 
    125 H125      -81.6983   23.5758  -74.6103 H         1 UNK         0.0793 
    126 H126      -82.2777   23.2873  -76.2471 H         1 UNK         0.0793 
    127 H127      -81.0208   26.2765  -74.1106 H         1 UNK         0.2896 
@<TRIPOS>BOND
     1    1    2 1    
     2    1   67 1    
     3    1   68 1    
     4    1   69 1    
     5    2    3 2    
     6    2    4 am   BACKBONE|DICT|INTERRES
     7    4    5 1    
     8    4   70 1    
     9    5    6 1    
    10    5   65 1    
    11    5   71 1    
    12    6    7 1    
    13    6   72 1    
    14    6   73 1    
    15    7    8 1    
    16    8    9 1    
    17    8   74 1    
    18    8   75 1    
    19    9   10 ar   
    20    9   14 ar   
    21   10   11 ar   
    22   10   76 1    
    23   11   12 ar   
    24   11   48 1    
    25   12   13 ar   
    26   12   77 1    
    27   13   14 ar   
    28   13   15 1    
    29   14   78 1    
    30   15   16 1    
    31   15   79 1    
    32   15   80 1    
    33   16   17 1    
    34   17   18 1    
    35   17   81 1    
    36   17   82 1    
    37   18   19 1    
    38   18   22 1    
    39   18   83 1    
    40   19   20 am   BACKBONE|DICT|INTERRES
    41   19   21 2    
    42   20   84 1    
    43   20   85 1    
    44   22   23 am   BACKBONE|DICT|INTERRES
    45   22   86 1    
    46   23   24 2    
    47   23   25 1    
    48   25   26 1    
    49   25   27 1    
    50   25   87 1    
    51   26   88 1    
    52   26   89 1    
    53   26   90 1    
    54   27   28 am   BACKBONE|DICT|INTERRES
    55   27   91 1    
    56   28   29 2    
    57   28   30 1    
    58   30   31 1    
    59   30   32 1    
    60   30   92 1    
    61   31   93 1    
    62   31   94 1    
    63   31   95 1    
    64   32   33 am   BACKBONE|DICT|INTERRES
    65   32   96 1    
    66   33   34 2    
    67   33   35 1    
    68   35   36 1    
    69   35   37 1    
    70   35   97 1    
    71   36   98 1    
    72   36   99 1    
    73   36  100 1    
    74   37   38 am   BACKBONE|DICT|INTERRES
    75   37  101 1    
    76   38   39 2    
    77   38   40 1    
    78   40   41 1    
    79   40   42 1    
    80   40  102 1    
    81   41  103 1    
    82   41  104 1    
    83   41  105 1    
    84   42   43 am   BACKBONE|DICT|INTERRES
    85   42  106 1    
    86   43   44 2    
    87   43   45 1    
    88   45   46 1    
    89   45   49 1    
    90   45  107 1    
    91   46   47 1    
    92   46  108 1    
    93   46  109 1    
    94   47   48 1    
    95   48  110 1    
    96   48  111 1    
    97   49   50 am   BACKBONE|DICT|INTERRES
    98   49  112 1    
    99   50   51 2    
   100   50   52 1    
   101   52   53 1    
   102   52   54 1    
   103   52  113 1    
   104   53  114 1    
   105   53  115 1    
   106   53  116 1    
   107   54   55 am   BACKBONE|DICT|INTERRES
   108   54  117 1    
   109   55   56 2    
   110   55   57 1    
   111   57   58 1    
   112   57   59 1    
   113   57  118 1    
   114   58  119 1    
   115   58  120 1    
   116   58  121 1    
   117   59   60 am   BACKBONE|DICT|INTERRES
   118   59  122 1    
   119   60   61 2    
   120   60   62 1    
   121   62   63 1    
   122   62   64 1    
   123   62  123 1    
   124   63  124 1    
   125   63  125 1    
   126   63  126 1    
   127   64   65 am   BACKBONE|DICT|INTERRES
   128   64  127 1    
   129   65   66 2    
@<TRIPOS>SUBSTRUCTURE
     1 UNK         1 GROUP             0       ****    0 ROOT    
