@<TRIPOS>MOLECULE
3R135
127   129    1
SMALL
USER_CHARGES


@<TRIPOS>ATOM
      1 CA        -85.3733   26.9761  -73.1989 C.3       0 UNK        -0.1998 
      2 C         -84.0671   27.3382  -73.8888 C.2       0 UNK         0.4909 
      3 O         -84.0759   28.0825  -74.8708 O.2       0 UNK        -0.5240 
      4 N         -82.9404   26.8121  -73.3923 N.am      1 UNK        -0.4739 
      5 CA        -81.5857   27.0501  -73.9095 C.3       1 UNK         0.0864 
      6 C6        -80.5090   26.8925  -72.8023 C.3       11 UNK        -0.0881 
      7 S7        -80.8522   27.9289  -71.3374 S.3       11 UNK        -0.2682 
      8 C8        -79.8303   29.4084  -71.6541 C.3       11 UNK         0.0289 
      9 C9        -78.3278   29.1499  -71.5821 C.ar      11 UNK        -0.0687 
     10 C10       -77.7821   28.3275  -70.5910 C.ar      11 UNK        -0.0823 
     11 C11       -76.4080   28.0779  -70.5459 C.ar      11 UNK        -0.0830 
     12 C12       -75.5672   28.6897  -71.4795 C.ar      11 UNK        -0.1021 
     13 C13       -76.0946   29.5371  -72.4586 C.ar      11 UNK        -0.0753 
     14 C14       -77.4744   29.7593  -72.5064 C.ar      11 UNK        -0.0933 
     15 C15       -75.1879   30.1811  -73.4959 C.3       11 UNK         0.0166 
     16 S16       -74.4682   31.7441  -72.9025 S.3       11 UNK        -0.2615 
     17 C17       -72.8805   31.1847  -72.1937 C.3       11 UNK        -0.0865 
     18 CA        -71.7013   31.3585  -73.1863 C.3       10 UNK         0.0862 
     19 C         -70.3517   31.0154  -72.5035 C.2       10 UNK         0.5551 
     20 N         -69.5591   32.0171  -72.1487 N.am      10 UNK        -0.7319 
     21 O         -70.0447   29.8524  -72.2508 O.2       10 UNK        -0.5018 
     22 N         -71.9073   30.5574  -74.3987 N.am      10 UNK        -0.4509 
     23 C         -71.2707   30.7248  -75.5626 C.2       10 UNK         0.4899 
     24 O         -70.4474   31.6168  -75.7742 O.2       10 UNK        -0.4839 
     25 CA        -71.6475   29.7285  -76.6786 C.3       9 UNK         0.0222 
     26 CB        -70.6736   29.7608  -77.8759 C.3       9 UNK        -0.1966 
     27 N         -71.8321   28.3578  -76.1815 N.am      9 UNK        -0.4218 
     28 C         -70.9067   27.5785  -75.5933 C.2       9 UNK         0.5020 
     29 O         -69.7341   27.9135  -75.4213 O.2       9 UNK        -0.5274 
     30 CA        -71.3541   26.1898  -75.0954 C.3       8 UNK         0.0270 
     31 CB        -71.4800   26.1933  -73.5625 C.3       8 UNK        -0.1976 
     32 N         -72.6162   25.7337  -75.6861 N.am      8 UNK        -0.4313 
     33 C         -72.7573   25.3536  -76.9666 C.2       8 UNK         0.5041 
     34 O         -71.8122   25.2595  -77.7508 O.2       8 UNK        -0.5577 
     35 CA        -74.1781   25.0511  -77.4836 C.3       7 UNK         0.0284 
     36 CB        -74.3574   23.5441  -77.7255 C.3       7 UNK        -0.1958 
     37 N         -75.2505   25.5395  -76.6108 N.am      7 UNK        -0.4454 
     38 C         -75.5167   26.8363  -76.3856 C.2       7 UNK         0.5089 
     39 O         -74.8849   27.7587  -76.9027 O.2       7 UNK        -0.5125 
     40 CA        -76.6256   27.1693  -75.3688 C.3       6 UNK         0.0408 
     41 CB        -77.9528   27.4355  -76.0905 C.3       6 UNK        -0.1791 
     42 N         -76.8288   26.1536  -74.3306 N.am      6 UNK        -0.4762 
     43 C         -75.8808   25.6967  -73.4949 C.2       6 UNK         0.5007 
     44 O         -74.7210   26.1106  -73.5032 O.2       6 UNK        -0.5032 
     45 CA        -76.2603   24.5055  -72.5809 C.3       5 UNK         0.0783 
     46 C46       -76.6397   24.9380  -71.1427 C.3       11 UNK        -0.0857 
     47 S47       -75.2115   25.5758  -70.1952 S.3       11 UNK        -0.2512 
     48 C48       -75.8419   27.1366  -69.4911 C.3       11 UNK         0.0225 
     49 N         -77.3056   23.6582  -73.1736 N.am      5 UNK        -0.4615 
     50 C         -77.1772   22.9931  -74.3301 C.2       4 UNK         0.5053 
     51 O         -76.1396   22.9954  -74.9919 O.2       4 UNK        -0.5105 
     52 CA        -78.4117   22.2586  -74.8763 C.3       4 UNK         0.0263 
     53 CB        -79.5735   22.1356  -73.8681 C.3       4 UNK        -0.1981 
     54 N         -78.8799   22.9721  -76.0637 N.am      4 UNK        -0.4224 
     55 C         -78.4627   22.7378  -77.3185 C.2       3 UNK         0.4895 
     56 O         -77.7054   21.8164  -77.6263 O.2       3 UNK        -0.5091 
     57 CA        -78.9999   23.6764  -78.4143 C.3       3 UNK         0.0250 
     58 CB        -78.9827   23.0381  -79.8162 C.3       3 UNK        -0.1996 
     59 N         -80.3603   24.0905  -78.0811 N.am      3 UNK        -0.4254 
     60 C         -80.8168   25.3466  -78.0792 C.2       2 UNK         0.5004 
     61 O         -80.1892   26.3124  -78.5152 O.2       2 UNK        -0.5226 
     62 CA        -82.1988   25.5751  -77.4380 C.3       2 UNK         0.0269 
     63 CB        -82.9986   24.2773  -77.1778 C.3       2 UNK        -0.1926 
     64 N         -82.1151   26.3506  -76.1943 N.am      2 UNK        -0.4687 
     65 C         -81.3196   26.1431  -75.1323 C.2       1 UNK         0.5165 
     66 O         -80.4508   25.2670  -75.0770 O.2       1 UNK        -0.5079 
     67 H67       -86.0389   26.4705  -73.8979 H         1 UNK         0.0900 
     68 H68       -85.2141   26.3182  -72.3448 H         1 UNK         0.0900 
     69 H69       -85.8719   27.8776  -72.8440 H         1 UNK         0.0900 
     70 H70       -82.9924   26.1999  -72.5906 H         1 UNK         0.2959 
     71 H71       -81.5269   28.0807  -74.2673 H         1 UNK         0.1079 
     72 H72       -79.5177   27.1330  -73.1893 H         1 UNK         0.0837 
     73 H73       -80.4566   25.8556  -72.4649 H         1 UNK         0.0837 
     74 H74       -80.1058   29.8177  -72.6273 H         1 UNK         0.0685 
     75 H75       -80.0836   30.1697  -70.9155 H         1 UNK         0.0685 
     76 H76       -78.4331   27.8617  -69.8641 H         1 UNK         0.1434 
     77 H77       -74.5068   28.4830  -71.4545 H         1 UNK         0.1329 
     78 H78       -77.8840   30.4065  -73.2699 H         1 UNK         0.1335 
     79 H79       -74.4067   29.4802  -73.7911 H         1 UNK         0.0680 
     80 H80       -75.7549   30.3938  -74.4035 H         1 UNK         0.0680 
     81 H81       -72.7022   31.7753  -71.2929 H         1 UNK         0.1032 
     82 H82       -72.9587   30.1498  -71.8587 H         1 UNK         0.1032 
     83 H83       -71.6747   32.4078  -73.4888 H         1 UNK         0.0461 
     84 H84       -68.6862   31.8122  -71.6879 H         1 UNK         0.3453 
     85 H85       -69.8085   32.9739  -72.3463 H         1 UNK         0.3453 
     86 H86       -72.5330   29.7735  -74.3088 H         1 UNK         0.2984 
     87 H87       -72.6245   30.0456  -77.0464 H         1 UNK         0.0554 
     88 H88       -70.9742   29.0558  -78.6509 H         1 UNK         0.0847 
     89 H89       -69.6537   29.5166  -77.5775 H         1 UNK         0.0847 
     90 H90       -70.6485   30.7511  -78.3321 H         1 UNK         0.0847 
     91 H91       -72.7665   27.9805  -76.2950 H         1 UNK         0.3141 
     92 H92       -70.5745   25.4763  -75.3707 H         1 UNK         0.0743 
     93 H93       -72.2053   26.9314  -73.2178 H         1 UNK         0.0784 
     94 H94       -71.7871   25.2184  -73.1835 H         1 UNK         0.0784 
     95 H95       -70.5255   26.4382  -73.0942 H         1 UNK         0.0784 
     96 H96       -73.4365   25.7800  -75.0887 H         1 UNK         0.3213 
     97 H97       -74.2812   25.5601  -78.4445 H         1 UNK         0.0855 
     98 H98       -74.2215   22.9690  -76.8092 H         1 UNK         0.0814 
     99 H99       -73.6282   23.1762  -78.4485 H         1 UNK         0.0814 
    100 H100      -75.3471   23.3170  -78.1218 H         1 UNK         0.0814 
    101 H101      -75.7644   24.8355  -76.0929 H         1 UNK         0.3105 
    102 H102      -76.3284   28.0876  -74.8670 H         1 UNK         0.0547 
    103 H103      -77.8263   28.1626  -76.8940 H         1 UNK         0.0837 
    104 H104      -78.3542   26.5257  -76.5363 H         1 UNK         0.0837 
    105 H105      -78.7011   27.8399  -75.4101 H         1 UNK         0.0837 
    106 H106      -77.7463   25.7352  -74.2800 H         1 UNK         0.3020 
    107 H107      -75.3649   23.8828  -72.5127 H         1 UNK         0.1245 
    108 H108      -77.0188   24.0780  -70.5884 H         1 UNK         0.0781 
    109 H109      -77.4586   25.6570  -71.1611 H         1 UNK         0.0781 
    110 H110      -75.0298   27.6381  -68.9628 H         1 UNK         0.0836 
    111 H111      -76.5945   26.9020  -68.7367 H         1 UNK         0.0836 
    112 H112      -78.1877   23.6133  -72.6849 H         1 UNK         0.3022 
    113 H113      -78.0947   21.2493  -75.1472 H         1 UNK         0.0747 
    114 H114      -80.3971   21.5641  -74.2966 H         1 UNK         0.0793 
    115 H115      -79.2591   21.6090  -72.9659 H         1 UNK         0.0793 
    116 H116      -79.9738   23.1050  -73.5699 H         1 UNK         0.0793 
    117 H117      -79.4774   23.7763  -75.8870 H         1 UNK         0.3047 
    118 H118      -78.3358   24.5436  -78.4230 H         1 UNK         0.0822 
    119 H119      -79.3623   23.7289  -80.5692 H         1 UNK         0.0807 
    120 H120      -79.5907   22.1335  -79.8537 H         1 UNK         0.0807 
    121 H121      -77.9687   22.7654  -80.1117 H         1 UNK         0.0807 
    122 H122      -80.9545   23.3704  -77.6934 H         1 UNK         0.2946 
    123 H123      -82.7648   26.1779  -78.1503 H         1 UNK         0.1144 
    124 H124      -84.0040   24.5077  -76.8247 H         1 UNK         0.0793 
    125 H125      -82.5284   23.6445  -76.4238 H         1 UNK         0.0793 
    126 H126      -83.1129   23.6899  -78.0901 H         1 UNK         0.0793 
    127 H127      -82.8007   27.0937  -76.0979 H         1 UNK         0.2896 
@<TRIPOS>BOND
     1    1    2 1    
     2    1   67 1    
     3    1   68 1    
     4    1   69 1    
     5    2    3 2    
     6    2    4 am   BACKBONE|DICT|INTERRES
     7    4    5 1    
     8    4   70 1    
     9    5    6 1    
    10    5   65 1    
    11    5   71 1    
    12    6    7 1    
    13    6   72 1    
    14    6   73 1    
    15    7    8 1    
    16    8    9 1    
    17    8   74 1    
    18    8   75 1    
    19    9   10 ar   
    20    9   14 ar   
    21   10   11 ar   
    22   10   76 1    
    23   11   12 ar   
    24   11   48 1    
    25   12   13 ar   
    26   12   77 1    
    27   13   14 ar   
    28   13   15 1    
    29   14   78 1    
    30   15   16 1    
    31   15   79 1    
    32   15   80 1    
    33   16   17 1    
    34   17   18 1    
    35   17   81 1    
    36   17   82 1    
    37   18   19 1    
    38   18   22 1    
    39   18   83 1    
    40   19   20 am   BACKBONE|DICT|INTERRES
    41   19   21 2    
    42   20   84 1    
    43   20   85 1    
    44   22   23 am   BACKBONE|DICT|INTERRES
    45   22   86 1    
    46   23   24 2    
    47   23   25 1    
    48   25   26 1    
    49   25   27 1    
    50   25   87 1    
    51   26   88 1    
    52   26   89 1    
    53   26   90 1    
    54   27   28 am   BACKBONE|DICT|INTERRES
    55   27   91 1    
    56   28   29 2    
    57   28   30 1    
    58   30   31 1    
    59   30   32 1    
    60   30   92 1    
    61   31   93 1    
    62   31   94 1    
    63   31   95 1    
    64   32   33 am   BACKBONE|DICT|INTERRES
    65   32   96 1    
    66   33   34 2    
    67   33   35 1    
    68   35   36 1    
    69   35   37 1    
    70   35   97 1    
    71   36   98 1    
    72   36   99 1    
    73   36  100 1    
    74   37   38 am   BACKBONE|DICT|INTERRES
    75   37  101 1    
    76   38   39 2    
    77   38   40 1    
    78   40   41 1    
    79   40   42 1    
    80   40  102 1    
    81   41  103 1    
    82   41  104 1    
    83   41  105 1    
    84   42   43 am   BACKBONE|DICT|INTERRES
    85   42  106 1    
    86   43   44 2    
    87   43   45 1    
    88   45   46 1    
    89   45   49 1    
    90   45  107 1    
    91   46   47 1    
    92   46  108 1    
    93   46  109 1    
    94   47   48 1    
    95   48  110 1    
    96   48  111 1    
    97   49   50 am   BACKBONE|DICT|INTERRES
    98   49  112 1    
    99   50   51 2    
   100   50   52 1    
   101   52   53 1    
   102   52   54 1    
   103   52  113 1    
   104   53  114 1    
   105   53  115 1    
   106   53  116 1    
   107   54   55 am   BACKBONE|DICT|INTERRES
   108   54  117 1    
   109   55   56 2    
   110   55   57 1    
   111   57   58 1    
   112   57   59 1    
   113   57  118 1    
   114   58  119 1    
   115   58  120 1    
   116   58  121 1    
   117   59   60 am   BACKBONE|DICT|INTERRES
   118   59  122 1    
   119   60   61 2    
   120   60   62 1    
   121   62   63 1    
   122   62   64 1    
   123   62  123 1    
   124   63  124 1    
   125   63  125 1    
   126   63  126 1    
   127   64   65 am   BACKBONE|DICT|INTERRES
   128   64  127 1    
   129   65   66 2    
@<TRIPOS>SUBSTRUCTURE
     1 UNK         1 GROUP             0       ****    0 ROOT    
