@<TRIPOS>MOLECULE
3R135
127   129    1
SMALL
USER_CHARGES


@<TRIPOS>ATOM
      1 CA        -84.1855   27.6175  -71.8285 C.3       0 UNK        -0.1998 
      2 C         -82.9535   26.7253  -71.8079 C.2       0 UNK         0.4909 
      3 O         -83.0226   25.6027  -71.3074 O.2       0 UNK        -0.5240 
      4 N         -81.8302   27.2186  -72.3510 N.am      1 UNK        -0.4739 
      5 CA        -80.5386   26.5177  -72.4435 C.3       1 UNK         0.0864 
      6 C6        -79.9227   26.2071  -71.0486 C.3       11 UNK        -0.0881 
      7 S7        -78.1150   26.4611  -70.9786 S.3       11 UNK        -0.2682 
      8 C8        -77.9640   28.2164  -70.5111 C.3       11 UNK         0.0289 
      9 C9        -77.5837   29.0799  -71.7057 C.ar      11 UNK        -0.0687 
     10 C10       -78.5699   29.5945  -72.5503 C.ar      11 UNK        -0.0823 
     11 C11       -78.2209   30.3561  -73.6691 C.ar      11 UNK        -0.0830 
     12 C12       -76.8778   30.6697  -73.8980 C.ar      11 UNK        -0.1021 
     13 C13       -75.8817   30.1784  -73.0502 C.ar      11 UNK        -0.0753 
     14 C14       -76.2405   29.3662  -71.9680 C.ar      11 UNK        -0.0933 
     15 C15       -74.4185   30.4925  -73.3256 C.3       11 UNK         0.0166 
     16 S16       -73.6228   31.2991  -71.8975 S.3       11 UNK        -0.2615 
     17 C17       -71.8564   31.2576  -72.3705 C.3       11 UNK        -0.0865 
     18 CA        -71.0749   30.0315  -71.8212 C.3       10 UNK         0.0862 
     19 C         -70.9348   30.0474  -70.2712 C.2       10 UNK         0.5551 
     20 N         -70.0538   30.8865  -69.7431 N.am      10 UNK        -0.7319 
     21 O         -71.6253   29.3333  -69.5457 O.2       10 UNK        -0.5018 
     22 N         -71.6322   28.7865  -72.3587 N.am      10 UNK        -0.4509 
     23 C         -71.0751   27.5723  -72.3051 C.2       10 UNK         0.4899 
     24 O         -69.9833   27.3303  -71.7898 O.2       10 UNK        -0.4839 
     25 CA        -71.8671   26.4376  -72.9809 C.3       9 UNK         0.0222 
     26 CB        -72.8050   25.7558  -71.9726 C.3       9 UNK        -0.1966 
     27 N         -72.6468   26.8857  -74.1413 N.am      9 UNK        -0.4218 
     28 C         -72.1212   27.3446  -75.2859 C.2       9 UNK         0.5020 
     29 O         -70.9117   27.4203  -75.5152 O.2       9 UNK        -0.5274 
     30 CA        -73.1250   27.8066  -76.3566 C.3       8 UNK         0.0270 
     31 CB        -72.7724   29.2135  -76.8707 C.3       8 UNK        -0.1976 
     32 N         -73.2529   26.8954  -77.4988 N.am      8 UNK        -0.4313 
     33 C         -73.3829   25.5604  -77.4720 C.2       8 UNK         0.5041 
     34 O         -73.3239   24.8634  -76.4584 O.2       8 UNK        -0.5577 
     35 CA        -73.7446   24.9124  -78.8133 C.3       7 UNK         0.0284 
     36 CB        -73.4358   23.4041  -78.8515 C.3       7 UNK        -0.1958 
     37 N         -75.1791   25.1141  -78.9799 N.am      7 UNK        -0.4454 
     38 C         -75.7385   26.0292  -79.7782 C.2       7 UNK         0.5089 
     39 O         -75.1156   26.6894  -80.6107 O.2       7 UNK        -0.5125 
     40 CA        -77.2394   26.2930  -79.5679 C.3       6 UNK         0.0408 
     41 CB        -78.0853   25.1281  -80.1058 C.3       6 UNK        -0.1791 
     42 N         -77.5871   26.5500  -78.1656 N.am      6 UNK        -0.4762 
     43 C         -77.1063   27.5584  -77.4168 C.2       6 UNK         0.5007 
     44 O         -76.2893   28.3859  -77.8208 O.2       6 UNK        -0.5032 
     45 CA        -77.6203   27.6490  -75.9675 C.3       5 UNK         0.0783 
     46 C46       -79.0522   28.2466  -75.9078 C.3       11 UNK        -0.0857 
     47 S47       -79.0922   30.0349  -76.2907 S.3       11 UNK        -0.2512 
     48 C48       -79.2929   30.8093  -74.6494 C.3       11 UNK         0.0225 
     49 N         -77.5368   26.3217  -75.3516 N.am      5 UNK        -0.4615 
     50 C         -76.4600   25.8599  -74.6956 C.2       4 UNK         0.5053 
     51 O         -75.5281   26.5758  -74.3264 O.2       4 UNK        -0.5105 
     52 CA        -76.3708   24.3446  -74.4238 C.3       4 UNK         0.0263 
     53 CB        -76.3558   24.0267  -72.9203 C.3       4 UNK        -0.1981 
     54 N         -77.4305   23.5656  -75.0679 N.am      4 UNK        -0.4224 
     55 C         -77.4188   23.1850  -76.3535 C.2       3 UNK         0.4895 
     56 O         -76.5053   23.4380  -77.1357 O.2       3 UNK        -0.5091 
     57 CA        -78.6622   22.4457  -76.8792 C.3       3 UNK         0.0250 
     58 CB        -78.5124   20.9300  -76.6765 C.3       3 UNK        -0.1996 
     59 N         -79.9180   22.8989  -76.2750 N.am      3 UNK        -0.4254 
     60 C         -80.3708   24.1600  -76.2967 C.2       2 UNK         0.5004 
     61 O         -79.7739   25.0861  -76.8507 O.2       2 UNK        -0.5226 
     62 CA        -81.6720   24.4641  -75.5326 C.3       2 UNK         0.0269 
     63 CB        -82.4012   23.2148  -74.9862 C.3       2 UNK        -0.1926 
     64 N         -81.4395   25.4314  -74.4534 N.am      2 UNK        -0.4687 
     65 C         -80.5822   25.3190  -73.4233 C.2       1 UNK         0.5165 
     66 O         -79.8485   24.3435  -73.2531 O.2       1 UNK        -0.5079 
     67 H67       -84.9897   27.1335  -72.3820 H         1 UNK         0.0900 
     68 H68       -84.5332   27.7993  -70.8119 H         1 UNK         0.0900 
     69 H69       -83.9851   28.5818  -72.2951 H         1 UNK         0.0900 
     70 H70       -81.8522   28.1486  -72.7462 H         1 UNK         0.2959 
     71 H71       -79.8719   27.2196  -72.9352 H         1 UNK         0.1079 
     72 H72       -80.3753   26.8350  -70.2801 H         1 UNK         0.0837 
     73 H73       -80.1478   25.1848  -70.7393 H         1 UNK         0.0837 
     74 H74       -78.8885   28.5803  -70.0611 H         1 UNK         0.0685 
     75 H75       -77.2007   28.3028  -69.7364 H         1 UNK         0.0685 
     76 H76       -79.6094   29.3836  -72.3462 H         1 UNK         0.1434 
     77 H77       -76.6098   31.2693  -74.7575 H         1 UNK         0.1329 
     78 H78       -75.4711   28.9660  -71.3220 H         1 UNK         0.1335 
     79 H79       -74.3161   31.1415  -74.1969 H         1 UNK         0.0680 
     80 H80       -73.9125   29.5612  -73.5731 H         1 UNK         0.0680 
     81 H81       -71.7765   31.2899  -73.4584 H         1 UNK         0.1032 
     82 H82       -71.3926   32.1831  -72.0246 H         1 UNK         0.1032 
     83 H83       -70.0600   30.0960  -72.2188 H         1 UNK         0.0461 
     84 H84       -69.4822   31.4799  -70.3243 H         1 UNK         0.3453 
     85 H85       -69.9525   30.9220  -68.7407 H         1 UNK         0.3453 
     86 H86       -72.5541   28.8603  -72.7564 H         1 UNK         0.2984 
     87 H87       -71.1460   25.6959  -73.3307 H         1 UNK         0.0554 
     88 H88       -72.2585   25.4306  -71.0862 H         1 UNK         0.0847 
     89 H89       -73.2697   24.8709  -72.4071 H         1 UNK         0.0847 
     90 H90       -73.5996   26.4255  -71.6403 H         1 UNK         0.0847 
     91 H91       -73.6601   26.7900  -74.0869 H         1 UNK         0.3141 
     92 H92       -74.1117   27.8801  -75.9017 H         1 UNK         0.0743 
     93 H93       -71.8357   29.2163  -77.4296 H         1 UNK         0.0784 
     94 H94       -73.5549   29.6048  -77.5215 H         1 UNK         0.0784 
     95 H95       -72.6605   29.9161  -76.0439 H         1 UNK         0.0784 
     96 H96       -73.3611   27.3464  -78.3963 H         1 UNK         0.3213 
     97 H97       -73.1753   25.3996  -79.6081 H         1 UNK         0.0855 
     98 H98       -73.9827   22.8556  -78.0834 H         1 UNK         0.0814 
     99 H99       -72.3730   23.2215  -78.6891 H         1 UNK         0.0814 
    100 H100      -73.6977   22.9728  -79.8176 H         1 UNK         0.0814 
    101 H101      -75.7634   24.6229  -78.3033 H         1 UNK         0.3105 
    102 H102      -77.5011   27.1887  -80.1348 H         1 UNK         0.0547 
    103 H103      -77.8824   24.9563  -81.1637 H         1 UNK         0.0837 
    104 H104      -77.8745   24.1974  -79.5795 H         1 UNK         0.0837 
    105 H105      -79.1517   25.3329  -80.0093 H         1 UNK         0.0837 
    106 H106      -78.2902   25.9412  -77.7555 H         1 UNK         0.3020 
    107 H107      -76.9523   28.3236  -75.4279 H         1 UNK         0.1245 
    108 H108      -79.4787   28.1001  -74.9192 H         1 UNK         0.0781 
    109 H109      -79.7266   27.7315  -76.5938 H         1 UNK         0.0781 
    110 H110      -80.2912   30.5840  -74.2712 H         1 UNK         0.0836 
    111 H111      -79.2448   31.8935  -74.7595 H         1 UNK         0.0836 
    112 H112      -78.2523   25.6624  -75.6335 H         1 UNK         0.3022 
    113 H113      -75.4089   24.0251  -74.8310 H         1 UNK         0.0747 
    114 H114      -76.0196   23.0059  -72.7398 H         1 UNK         0.0793 
    115 H115      -75.6834   24.6904  -72.3761 H         1 UNK         0.0793 
    116 H116      -77.3439   24.1307  -72.4756 H         1 UNK         0.0793 
    117 H117      -78.2541   23.3795  -74.5069 H         1 UNK         0.3047 
    118 H118      -78.7295   22.6399  -77.9512 H         1 UNK         0.0822 
    119 H119      -79.3393   20.3841  -77.1314 H         1 UNK         0.0807 
    120 H120      -78.4746   20.6647  -75.6191 H         1 UNK         0.0807 
    121 H121      -77.5935   20.5643  -77.1373 H         1 UNK         0.0807 
    122 H122      -80.4583   22.2070  -75.7759 H         1 UNK         0.2946 
    123 H123      -82.3344   24.9465  -76.2533 H         1 UNK         0.1144 
    124 H124      -83.3430   23.4933  -74.5130 H         1 UNK         0.0793 
    125 H125      -81.8106   22.6804  -74.2412 H         1 UNK         0.0793 
    126 H126      -82.6454   22.5155  -75.7871 H         1 UNK         0.0793 
    127 H127      -81.9839   26.2804  -74.5101 H         1 UNK         0.2896 
@<TRIPOS>BOND
     1    1    2 1    
     2    1   67 1    
     3    1   68 1    
     4    1   69 1    
     5    2    3 2    
     6    2    4 am   BACKBONE|DICT|INTERRES
     7    4    5 1    
     8    4   70 1    
     9    5    6 1    
    10    5   65 1    
    11    5   71 1    
    12    6    7 1    
    13    6   72 1    
    14    6   73 1    
    15    7    8 1    
    16    8    9 1    
    17    8   74 1    
    18    8   75 1    
    19    9   10 ar   
    20    9   14 ar   
    21   10   11 ar   
    22   10   76 1    
    23   11   12 ar   
    24   11   48 1    
    25   12   13 ar   
    26   12   77 1    
    27   13   14 ar   
    28   13   15 1    
    29   14   78 1    
    30   15   16 1    
    31   15   79 1    
    32   15   80 1    
    33   16   17 1    
    34   17   18 1    
    35   17   81 1    
    36   17   82 1    
    37   18   19 1    
    38   18   22 1    
    39   18   83 1    
    40   19   20 am   BACKBONE|DICT|INTERRES
    41   19   21 2    
    42   20   84 1    
    43   20   85 1    
    44   22   23 am   BACKBONE|DICT|INTERRES
    45   22   86 1    
    46   23   24 2    
    47   23   25 1    
    48   25   26 1    
    49   25   27 1    
    50   25   87 1    
    51   26   88 1    
    52   26   89 1    
    53   26   90 1    
    54   27   28 am   BACKBONE|DICT|INTERRES
    55   27   91 1    
    56   28   29 2    
    57   28   30 1    
    58   30   31 1    
    59   30   32 1    
    60   30   92 1    
    61   31   93 1    
    62   31   94 1    
    63   31   95 1    
    64   32   33 am   BACKBONE|DICT|INTERRES
    65   32   96 1    
    66   33   34 2    
    67   33   35 1    
    68   35   36 1    
    69   35   37 1    
    70   35   97 1    
    71   36   98 1    
    72   36   99 1    
    73   36  100 1    
    74   37   38 am   BACKBONE|DICT|INTERRES
    75   37  101 1    
    76   38   39 2    
    77   38   40 1    
    78   40   41 1    
    79   40   42 1    
    80   40  102 1    
    81   41  103 1    
    82   41  104 1    
    83   41  105 1    
    84   42   43 am   BACKBONE|DICT|INTERRES
    85   42  106 1    
    86   43   44 2    
    87   43   45 1    
    88   45   46 1    
    89   45   49 1    
    90   45  107 1    
    91   46   47 1    
    92   46  108 1    
    93   46  109 1    
    94   47   48 1    
    95   48  110 1    
    96   48  111 1    
    97   49   50 am   BACKBONE|DICT|INTERRES
    98   49  112 1    
    99   50   51 2    
   100   50   52 1    
   101   52   53 1    
   102   52   54 1    
   103   52  113 1    
   104   53  114 1    
   105   53  115 1    
   106   53  116 1    
   107   54   55 am   BACKBONE|DICT|INTERRES
   108   54  117 1    
   109   55   56 2    
   110   55   57 1    
   111   57   58 1    
   112   57   59 1    
   113   57  118 1    
   114   58  119 1    
   115   58  120 1    
   116   58  121 1    
   117   59   60 am   BACKBONE|DICT|INTERRES
   118   59  122 1    
   119   60   61 2    
   120   60   62 1    
   121   62   63 1    
   122   62   64 1    
   123   62  123 1    
   124   63  124 1    
   125   63  125 1    
   126   63  126 1    
   127   64   65 am   BACKBONE|DICT|INTERRES
   128   64  127 1    
   129   65   66 2    
@<TRIPOS>SUBSTRUCTURE
     1 UNK         1 GROUP             0       ****    0 ROOT    
