@<TRIPOS>MOLECULE
3R135
127   129    1
SMALL
USER_CHARGES


@<TRIPOS>ATOM
      1 CA        -80.4243   24.6809  -72.8514 C.3       0 UNK        -0.1998 
      2 C         -81.6540   25.5077  -72.5186 C.2       0 UNK         0.4909 
      3 O         -82.7745   25.0773  -72.7928 O.2       0 UNK        -0.5240 
      4 N         -81.4564   26.6974  -71.9362 N.am      1 UNK        -0.4739 
      5 CA        -82.5288   27.6134  -71.5151 C.3       1 UNK         0.0864 
      6 C6        -82.0745   28.5678  -70.3805 C.3       11 UNK        -0.0881 
      7 S7        -81.4169   27.6831  -68.9236 S.3       11 UNK        -0.2682 
      8 C8        -79.7147   28.3239  -68.8236 C.3       11 UNK         0.0289 
      9 C9        -78.8373   27.8057  -69.9543 C.ar      11 UNK        -0.0687 
     10 C10       -78.2566   26.5373  -69.8679 C.ar      11 UNK        -0.0823 
     11 C11       -77.4319   26.0592  -70.8915 C.ar      11 UNK        -0.0830 
     12 C12       -77.2007   26.8634  -72.0126 C.ar      11 UNK        -0.1021 
     13 C13       -77.7804   28.1324  -72.1160 C.ar      11 UNK        -0.0753 
     14 C14       -78.5907   28.5994  -71.0778 C.ar      11 UNK        -0.0933 
     15 C15       -77.5753   28.9920  -73.3572 C.3       11 UNK         0.0166 
     16 S16       -75.8262   29.1685  -73.8326 S.3       11 UNK        -0.2615 
     17 C17       -76.0320   30.2767  -75.2702 C.3       11 UNK        -0.0865 
     18 CA        -74.6999   30.7578  -75.8994 C.3       10 UNK         0.0862 
     19 C         -73.9500   31.7786  -74.9914 C.2       10 UNK         0.5551 
     20 N         -72.7423   31.4952  -74.5171 N.am      10 UNK        -0.7319 
     21 O         -74.4726   32.8588  -74.7272 O.2       10 UNK        -0.5018 
     22 N         -73.8840   29.6283  -76.3667 N.am      10 UNK        -0.4509 
     23 C         -72.9410   29.7108  -77.3135 C.2       10 UNK         0.4899 
     24 O         -72.7471   30.7228  -77.9891 O.2       10 UNK        -0.4839 
     25 CA        -72.0705   28.4577  -77.5548 C.3       9 UNK         0.0222 
     26 CB        -70.6609   28.8219  -78.0654 C.3       9 UNK        -0.1966 
     27 N         -71.9589   27.5344  -76.4154 N.am      9 UNK        -0.4218 
     28 C         -71.5480   27.8189  -75.1666 C.2       9 UNK         0.5020 
     29 O         -71.3153   28.9578  -74.7596 O.2       9 UNK        -0.5274 
     30 CA        -71.3652   26.6317  -74.2012 C.3       8 UNK         0.0270 
     31 CB        -72.6591   26.3944  -73.4067 C.3       8 UNK        -0.1976 
     32 N         -70.9646   25.3924  -74.8772 N.am      8 UNK        -0.4313 
     33 C         -69.8191   25.2409  -75.5621 C.2       8 UNK         0.5041 
     34 O         -68.9163   26.0790  -75.5678 O.2       8 UNK        -0.5577 
     35 CA        -69.6419   23.9653  -76.4091 C.3       7 UNK         0.0284 
     36 CB        -68.6411   23.0103  -75.7375 C.3       7 UNK        -0.1958 
     37 N         -70.8770   23.2305  -76.6992 N.am      7 UNK        -0.4454 
     38 C         -71.9585   23.6983  -77.3393 C.2       7 UNK         0.5089 
     39 O         -72.0658   24.8512  -77.7613 O.2       7 UNK        -0.5125 
     40 CA        -73.1532   22.7338  -77.4758 C.3       6 UNK         0.0408 
     41 CB        -72.7824   21.2450  -77.2908 C.3       6 UNK        -0.1791 
     42 N         -74.2561   23.0893  -76.5756 N.am      6 UNK        -0.4762 
     43 C         -74.2003   23.3053  -75.2517 C.2       6 UNK         0.5007 
     44 O         -73.1559   23.2857  -74.5960 O.2       6 UNK        -0.5032 
     45 CA        -75.5378   23.6472  -74.5623 C.3       5 UNK         0.0783 
     46 C46       -75.4270   23.6218  -73.0161 C.3       11 UNK        -0.0857 
     47 S47       -77.0612   23.6156  -72.2070 S.3       11 UNK        -0.2512 
     48 C48       -76.7764   24.6884  -70.7590 C.3       11 UNK         0.0225 
     49 N         -76.0226   24.9384  -75.0596 N.am      5 UNK        -0.4615 
     50 C         -76.6872   25.1146  -76.2060 C.2       4 UNK         0.5053 
     51 O         -77.0132   24.1931  -76.9581 O.2       4 UNK        -0.5105 
     52 CA        -76.9567   26.5673  -76.6212 C.3       4 UNK         0.0263 
     53 CB        -75.8944   27.0361  -77.6293 C.3       4 UNK        -0.1981 
     54 N         -78.2873   26.7148  -77.2093 N.am      4 UNK        -0.4224 
     55 C         -79.4225   26.6769  -76.5018 C.2       3 UNK         0.4895 
     56 O         -79.4652   26.5737  -75.2738 O.2       3 UNK        -0.5091 
     57 CA        -80.7321   26.7358  -77.3031 C.3       3 UNK         0.0250 
     58 CB        -81.1384   25.3271  -77.7661 C.3       3 UNK        -0.1996 
     59 N         -81.8062   27.2922  -76.4812 N.am      3 UNK        -0.4254 
     60 C         -81.9626   28.5958  -76.2143 C.2       2 UNK         0.5004 
     61 O         -81.3079   29.4960  -76.7407 O.2       2 UNK        -0.5226 
     62 CA        -82.9928   28.9338  -75.1348 C.3       2 UNK         0.0269 
     63 CB        -84.4201   28.5541  -75.5843 C.3       2 UNK        -0.1926 
     64 N         -82.6045   28.2452  -73.9037 N.am      2 UNK        -0.4687 
     65 C         -83.1413   28.4145  -72.6891 C.2       1 UNK         0.5165 
     66 O         -84.0784   29.1827  -72.4663 O.2       1 UNK        -0.5079 
     67 H67       -80.3150   23.8598  -72.1439 H         1 UNK         0.0900 
     68 H68       -79.5187   25.2853  -72.8199 H         1 UNK         0.0900 
     69 H69       -80.5070   24.2639  -73.8547 H         1 UNK         0.0900 
     70 H70       -80.5149   26.9932  -71.7133 H         1 UNK         0.2959 
     71 H71       -83.3443   27.0056  -71.1162 H         1 UNK         0.1079 
     72 H72       -81.3389   29.2823  -70.7504 H         1 UNK         0.0837 
     73 H73       -82.9175   29.1686  -70.0333 H         1 UNK         0.0837 
     74 H74       -79.2848   28.0255  -67.8662 H         1 UNK         0.0685 
     75 H75       -79.7350   29.4149  -68.8175 H         1 UNK         0.0685 
     76 H76       -78.4437   25.9273  -68.9944 H         1 UNK         0.1434 
     77 H77       -76.5701   26.4997  -72.8085 H         1 UNK         0.1329 
     78 H78       -79.0348   29.5828  -71.1464 H         1 UNK         0.1335 
     79 H79       -77.9905   29.9887  -73.1998 H         1 UNK         0.0680 
     80 H80       -78.1345   28.5557  -74.1839 H         1 UNK         0.0680 
     81 H81       -76.6203   29.7530  -76.0251 H         1 UNK         0.1032 
     82 H82       -76.6393   31.1344  -74.9740 H         1 UNK         0.1032 
     83 H83       -74.9790   31.3287  -76.7873 H         1 UNK         0.0461 
     84 H84       -72.3016   30.5995  -74.7082 H         1 UNK         0.3453 
     85 H85       -72.2705   32.1699  -73.9372 H         1 UNK         0.3453 
     86 H86       -73.9538   28.7823  -75.8226 H         1 UNK         0.2984 
     87 H87       -72.5710   27.8953  -78.3441 H         1 UNK         0.0554 
     88 H88       -70.0683   27.9283  -78.2624 H         1 UNK         0.0847 
     89 H89       -70.1172   29.4303  -77.3417 H         1 UNK         0.0847 
     90 H90       -70.7095   29.3867  -78.9971 H         1 UNK         0.0847 
     91 H91       -72.0977   26.5564  -76.6543 H         1 UNK         0.3141 
     92 H92       -70.5733   26.8971  -73.4978 H         1 UNK         0.0743 
     93 H93       -72.9459   27.2884  -72.8506 H         1 UNK         0.0784 
     94 H94       -73.4909   26.1402  -74.0627 H         1 UNK         0.0784 
     95 H95       -72.5389   25.5872  -72.6839 H         1 UNK         0.0784 
     96 H96       -71.6377   24.6315  -74.8835 H         1 UNK         0.3213 
     97 H97       -69.2239   24.2808  -77.3673 H         1 UNK         0.0855 
     98 H98       -69.0181   22.6367  -74.7846 H         1 UNK         0.0814 
     99 H99       -67.6938   23.5133  -75.5378 H         1 UNK         0.0814 
    100 H100      -68.4202   22.1525  -76.3732 H         1 UNK         0.0814 
    101 H101      -70.9220   22.2848  -76.3486 H         1 UNK         0.3105 
    102 H102      -73.5283   22.8565  -78.4929 H         1 UNK         0.0547 
    103 H103      -72.4809   21.0143  -76.2684 H         1 UNK         0.0837 
    104 H104      -73.6296   20.6025  -77.5310 H         1 UNK         0.0837 
    105 H105      -71.9676   20.9538  -77.9554 H         1 UNK         0.0837 
    106 H106      -75.1601   23.2168  -77.0197 H         1 UNK         0.3020 
    107 H107      -76.2432   22.8642  -74.8524 H         1 UNK         0.1245 
    108 H108      -74.8324   24.4650  -72.6630 H         1 UNK         0.0781 
    109 H109      -74.9080   22.7219  -72.6796 H         1 UNK         0.0781 
    110 H110      -77.1680   24.1673  -69.8841 H         1 UNK         0.0836 
    111 H111      -75.7095   24.8164  -70.5737 H         1 UNK         0.0836 
    112 H112      -75.7669   25.7472  -74.5157 H         1 UNK         0.3022 
    113 H113      -76.8997   27.2015  -75.7367 H         1 UNK         0.0747 
    114 H114      -74.8904   26.9288  -77.2173 H         1 UNK         0.0793 
    115 H115      -76.0285   28.0856  -77.8916 H         1 UNK         0.0793 
    116 H116      -75.9273   26.4533  -78.5508 H         1 UNK         0.0793 
    117 H117      -78.3364   26.7498  -78.2172 H         1 UNK         0.3047 
    118 H118      -80.5870   27.3717  -78.1793 H         1 UNK         0.0822 
    119 H119      -80.3703   24.8869  -78.4036 H         1 UNK         0.0807 
    120 H120      -82.0630   25.3500  -78.3433 H         1 UNK         0.0807 
    121 H121      -81.2854   24.6515  -76.9221 H         1 UNK         0.0807 
    122 H122      -82.3756   26.6272  -75.9785 H         1 UNK         0.2946 
    123 H123      -82.9526   30.0110  -74.9577 H         1 UNK         0.1144 
    124 H124      -84.6474   28.9808  -76.5622 H         1 UNK         0.0793 
    125 H125      -85.1723   28.9319  -74.8921 H         1 UNK         0.0793 
    126 H126      -84.5516   27.4743  -75.6591 H         1 UNK         0.0793 
    127 H127      -81.8071   27.6260  -73.9798 H         1 UNK         0.2896 
@<TRIPOS>BOND
     1    1    2 1    
     2    1   67 1    
     3    1   68 1    
     4    1   69 1    
     5    2    3 2    
     6    2    4 am   BACKBONE|DICT|INTERRES
     7    4    5 1    
     8    4   70 1    
     9    5    6 1    
    10    5   65 1    
    11    5   71 1    
    12    6    7 1    
    13    6   72 1    
    14    6   73 1    
    15    7    8 1    
    16    8    9 1    
    17    8   74 1    
    18    8   75 1    
    19    9   10 ar   
    20    9   14 ar   
    21   10   11 ar   
    22   10   76 1    
    23   11   12 ar   
    24   11   48 1    
    25   12   13 ar   
    26   12   77 1    
    27   13   14 ar   
    28   13   15 1    
    29   14   78 1    
    30   15   16 1    
    31   15   79 1    
    32   15   80 1    
    33   16   17 1    
    34   17   18 1    
    35   17   81 1    
    36   17   82 1    
    37   18   19 1    
    38   18   22 1    
    39   18   83 1    
    40   19   20 am   BACKBONE|DICT|INTERRES
    41   19   21 2    
    42   20   84 1    
    43   20   85 1    
    44   22   23 am   BACKBONE|DICT|INTERRES
    45   22   86 1    
    46   23   24 2    
    47   23   25 1    
    48   25   26 1    
    49   25   27 1    
    50   25   87 1    
    51   26   88 1    
    52   26   89 1    
    53   26   90 1    
    54   27   28 am   BACKBONE|DICT|INTERRES
    55   27   91 1    
    56   28   29 2    
    57   28   30 1    
    58   30   31 1    
    59   30   32 1    
    60   30   92 1    
    61   31   93 1    
    62   31   94 1    
    63   31   95 1    
    64   32   33 am   BACKBONE|DICT|INTERRES
    65   32   96 1    
    66   33   34 2    
    67   33   35 1    
    68   35   36 1    
    69   35   37 1    
    70   35   97 1    
    71   36   98 1    
    72   36   99 1    
    73   36  100 1    
    74   37   38 am   BACKBONE|DICT|INTERRES
    75   37  101 1    
    76   38   39 2    
    77   38   40 1    
    78   40   41 1    
    79   40   42 1    
    80   40  102 1    
    81   41  103 1    
    82   41  104 1    
    83   41  105 1    
    84   42   43 am   BACKBONE|DICT|INTERRES
    85   42  106 1    
    86   43   44 2    
    87   43   45 1    
    88   45   46 1    
    89   45   49 1    
    90   45  107 1    
    91   46   47 1    
    92   46  108 1    
    93   46  109 1    
    94   47   48 1    
    95   48  110 1    
    96   48  111 1    
    97   49   50 am   BACKBONE|DICT|INTERRES
    98   49  112 1    
    99   50   51 2    
   100   50   52 1    
   101   52   53 1    
   102   52   54 1    
   103   52  113 1    
   104   53  114 1    
   105   53  115 1    
   106   53  116 1    
   107   54   55 am   BACKBONE|DICT|INTERRES
   108   54  117 1    
   109   55   56 2    
   110   55   57 1    
   111   57   58 1    
   112   57   59 1    
   113   57  118 1    
   114   58  119 1    
   115   58  120 1    
   116   58  121 1    
   117   59   60 am   BACKBONE|DICT|INTERRES
   118   59  122 1    
   119   60   61 2    
   120   60   62 1    
   121   62   63 1    
   122   62   64 1    
   123   62  123 1    
   124   63  124 1    
   125   63  125 1    
   126   63  126 1    
   127   64   65 am   BACKBONE|DICT|INTERRES
   128   64  127 1    
   129   65   66 2    
@<TRIPOS>SUBSTRUCTURE
     1 UNK         1 GROUP             0       ****    0 ROOT    
