@<TRIPOS>MOLECULE
3R135
127   129    1
SMALL
USER_CHARGES


@<TRIPOS>ATOM
      1 CA        -84.3114   24.1712  -74.7481 C.3       0 UNK        -0.1998 
      2 C         -83.6895   25.5321  -74.4758 C.2       0 UNK         0.4909 
      3 O         -83.4855   26.3107  -75.4081 O.2       0 UNK        -0.5240 
      4 N         -83.3820   25.8291  -73.2061 N.am      1 UNK        -0.4739 
      5 CA        -82.6896   27.0528  -72.7908 C.3       1 UNK         0.0864 
      6 C6        -82.7558   27.2477  -71.2569 C.3       11 UNK        -0.0881 
      7 S7        -82.4564   28.9790  -70.7577 S.3       11 UNK        -0.2682 
      8 C8        -81.1155   28.8070  -69.5365 C.3       11 UNK         0.0289 
      9 C9        -79.7488   28.6574  -70.1904 C.ar      11 UNK        -0.0687 
     10 C10       -79.2169   27.3900  -70.4379 C.ar      11 UNK        -0.0823 
     11 C11       -77.9541   27.2411  -71.0181 C.ar      11 UNK        -0.0830 
     12 C12       -77.2085   28.3895  -71.3150 C.ar      11 UNK        -0.1021 
     13 C13       -77.7341   29.6703  -71.1025 C.ar      11 UNK        -0.0753 
     14 C14       -79.0081   29.7905  -70.5377 C.ar      11 UNK        -0.0933 
     15 C15       -76.9887   30.9419  -71.5175 C.3       11 UNK         0.0166 
     16 S16       -75.1690   30.8680  -71.3777 S.3       11 UNK        -0.2615 
     17 C17       -74.6849   30.2875  -73.0450 C.3       11 UNK        -0.0865 
     18 CA        -73.1560   30.1182  -73.2675 C.3       10 UNK         0.0862 
     19 C         -72.4444   29.2574  -72.1903 C.2       10 UNK         0.5551 
     20 N         -71.7794   29.8815  -71.2279 N.am      10 UNK        -0.7319 
     21 O         -72.4948   28.0303  -72.2194 O.2       10 UNK        -0.5018 
     22 N         -72.9008   29.5186  -74.5783 N.am      10 UNK        -0.4509 
     23 C         -72.7057   30.1751  -75.7259 C.2       10 UNK         0.4899 
     24 O         -72.7515   31.4017  -75.8279 O.2       10 UNK        -0.4839 
     25 CA        -72.4361   29.3074  -76.9722 C.3       9 UNK         0.0222 
     26 CB        -71.6678   30.0565  -78.0815 C.3       9 UNK        -0.1966 
     27 N         -71.8042   28.0217  -76.6500 N.am      9 UNK        -0.4218 
     28 C         -70.5733   27.8014  -76.1612 C.2       9 UNK         0.5020 
     29 O         -69.7396   28.6854  -75.9624 O.2       9 UNK        -0.5274 
     30 CA        -70.2133   26.3465  -75.8116 C.3       8 UNK         0.0270 
     31 CB        -70.3923   26.1020  -74.3040 C.3       8 UNK        -0.1976 
     32 N         -71.0347   25.3816  -76.5470 N.am      8 UNK        -0.4313 
     33 C         -70.6779   24.7854  -77.6927 C.2       8 UNK         0.5041 
     34 O         -69.5783   24.9296  -78.2287 O.2       8 UNK        -0.5577 
     35 CA        -71.7256   23.8742  -78.3615 C.3       7 UNK         0.0284 
     36 CB        -71.5728   22.4264  -77.8677 C.3       7 UNK        -0.1958 
     37 N         -73.1048   24.3199  -78.1400 N.am      7 UNK        -0.4454 
     38 C         -73.6318   25.4416  -78.6505 C.2       7 UNK         0.5089 
     39 O         -73.0353   26.1831  -79.4310 O.2       7 UNK        -0.5125 
     40 CA        -75.0499   25.8281  -78.1901 C.3       6 UNK         0.0408 
     41 CB        -76.0865   25.3852  -79.2334 C.3       6 UNK        -0.1791 
     42 N         -75.4443   25.3259  -76.8658 N.am      6 UNK        -0.4762 
     43 C         -74.8061   25.5754  -75.7097 C.2       6 UNK         0.5007 
     44 O         -73.7213   26.1580  -75.6634 O.2       6 UNK        -0.5032 
     45 CA        -75.4575   25.0994  -74.3921 C.3       5 UNK         0.0783 
     46 C46       -75.4495   26.2268  -73.3288 C.3       11 UNK        -0.0857 
     47 S47       -75.6895   25.5990  -71.6309 S.3       11 UNK        -0.2512 
     48 C48       -77.4813   25.8242  -71.3552 C.3       11 UNK         0.0225 
     49 N         -76.8237   24.6292  -74.6289 N.am      5 UNK        -0.4615 
     50 C         -77.2521   23.3649  -74.5347 C.2       4 UNK         0.5053 
     51 O         -76.5222   22.4172  -74.2452 O.2       4 UNK        -0.5105 
     52 CA        -78.7472   23.1040  -74.8109 C.3       4 UNK         0.0263 
     53 CB        -79.4918   22.7735  -73.5070 C.3       4 UNK        -0.1981 
     54 N         -79.4167   24.2273  -75.4757 N.am      4 UNK        -0.4224 
     55 C         -79.2517   24.5384  -76.7713 C.2       3 UNK         0.4895 
     56 O         -78.5753   23.8649  -77.5480 O.2       3 UNK        -0.5091 
     57 CA        -79.8993   25.8390  -77.2839 C.3       3 UNK         0.0250 
     58 CB        -81.2532   25.5378  -77.9443 C.3       3 UNK        -0.1996 
     59 N         -80.0718   26.8618  -76.2472 N.am      3 UNK        -0.4254 
     60 C         -79.0695   27.4271  -75.5554 C.2       2 UNK         0.5004 
     61 O         -77.8821   27.1800  -75.7595 O.2       2 UNK        -0.5226 
     62 CA        -79.4392   28.3748  -74.4007 C.3       2 UNK         0.0269 
     63 CB        -79.2601   29.8421  -74.8181 C.3       2 UNK        -0.1926 
     64 N         -80.7870   28.1817  -73.8554 N.am      2 UNK        -0.4687 
     65 C         -81.2388   27.0429  -73.3120 C.2       1 UNK         0.5165 
     66 O         -80.5714   26.0070  -73.2381 O.2       1 UNK        -0.5079 
     67 H67       -83.6735   23.5963  -75.4189 H         1 UNK         0.0900 
     68 H68       -85.2849   24.2919  -75.2226 H         1 UNK         0.0900 
     69 H69       -84.4485   23.5951  -73.8332 H         1 UNK         0.0900 
     70 H70       -83.5410   25.1431  -72.4821 H         1 UNK         0.2959 
     71 H71       -83.2190   27.8845  -73.2622 H         1 UNK         0.1079 
     72 H72       -83.7541   26.9935  -70.8969 H         1 UNK         0.0837 
     73 H73       -82.0777   26.5659  -70.7417 H         1 UNK         0.0837 
     74 H74       -81.3214   27.9633  -68.8758 H         1 UNK         0.0685 
     75 H75       -81.1151   29.6917  -68.8979 H         1 UNK         0.0685 
     76 H76       -79.7967   26.5107  -70.1940 H         1 UNK         0.1434 
     77 H77       -76.2231   28.2872  -71.7325 H         1 UNK         0.1329 
     78 H78       -79.4302   30.7717  -70.3679 H         1 UNK         0.1335 
     79 H79       -77.2673   31.1977  -72.5404 H         1 UNK         0.0680 
     80 H80       -77.3228   31.7742  -70.8961 H         1 UNK         0.0680 
     81 H81       -75.0692   31.0053  -73.7714 H         1 UNK         0.1032 
     82 H82       -75.1945   29.3519  -73.2692 H         1 UNK         0.1032 
     83 H83       -72.6998   31.1103  -73.2441 H         1 UNK         0.0461 
     84 H84       -71.3167   29.3344  -70.5193 H         1 UNK         0.3453 
     85 H85       -71.7507   30.8882  -71.1841 H         1 UNK         0.3453 
     86 H86       -72.8117   28.5107  -74.5699 H         1 UNK         0.2984 
     87 H87       -73.4187   29.0555  -77.3738 H         1 UNK         0.0554 
     88 H88       -72.2303   30.9241  -78.4285 H         1 UNK         0.0847 
     89 H89       -71.4974   29.4157  -78.9467 H         1 UNK         0.0847 
     90 H90       -70.6998   30.4180  -77.7338 H         1 UNK         0.0847 
     91 H91       -72.4321   27.2251  -76.6749 H         1 UNK         0.3141 
     92 H92       -69.1587   26.2007  -76.0555 H         1 UNK         0.0743 
     93 H93       -69.8099   26.8148  -73.7182 H         1 UNK         0.0784 
     94 H94       -71.4341   26.2041  -73.9974 H         1 UNK         0.0784 
     95 H95       -70.0582   25.1031  -74.0232 H         1 UNK         0.0784 
     96 H96       -71.9753   25.2376  -76.1972 H         1 UNK         0.3213 
     97 H97       -71.5352   23.8902  -79.4370 H         1 UNK         0.0855 
     98 H98       -71.7690   22.3393  -76.7983 H         1 UNK         0.0814 
     99 H99       -70.5601   22.0604  -78.0434 H         1 UNK         0.0814 
    100 H100      -72.2529   21.7540  -78.3911 H         1 UNK         0.0814 
    101 H101      -73.6778   23.7651  -77.5208 H         1 UNK         0.3105 
    102 H102      -75.0761   26.9183  -78.1344 H         1 UNK         0.0547 
    103 H103      -75.8149   25.7329  -80.2313 H         1 UNK         0.0837 
    104 H104      -76.1767   24.2992  -79.2785 H         1 UNK         0.0837 
    105 H105      -77.0707   25.7949  -79.0104 H         1 UNK         0.0837 
    106 H106      -76.3236   24.8291  -76.8212 H         1 UNK         0.3020 
    107 H107      -74.8303   24.2804  -74.0328 H         1 UNK         0.1245 
    108 H108      -76.2008   26.9796  -73.5700 H         1 UNK         0.0781 
    109 H109      -74.4936   26.7511  -73.3174 H         1 UNK         0.0781 
    110 H110      -78.0224   25.4821  -72.2370 H         1 UNK         0.0836 
    111 H111      -77.7691   25.1538  -70.5441 H         1 UNK         0.0836 
    112 H112      -77.4750   25.3516  -74.9162 H         1 UNK         0.3022 
    113 H113      -78.8084   22.2311  -75.4644 H         1 UNK         0.0747 
    114 H114      -79.0527   21.9037  -73.0165 H         1 UNK         0.0793 
    115 H115      -80.5404   22.5431  -73.6962 H         1 UNK         0.0793 
    116 H116      -79.4545   23.5994  -72.7967 H         1 UNK         0.0793 
    117 H117      -79.9594   24.8461  -74.8812 H         1 UNK         0.3047 
    118 H118      -79.2366   26.2576  -78.0435 H         1 UNK         0.0822 
    119 H119      -81.7145   26.4420  -78.3417 H         1 UNK         0.0807 
    120 H120      -81.9528   25.0835  -77.2422 H         1 UNK         0.0807 
    121 H121      -81.1333   24.8430  -78.7768 H         1 UNK         0.0807 
    122 H122      -81.0222   27.1017  -75.9983 H         1 UNK         0.2946 
    123 H123      -78.7351   28.1640  -73.5957 H         1 UNK         0.1144 
    124 H124      -78.2508   30.0206  -75.1922 H         1 UNK         0.0793 
    125 H125      -79.4131   30.5146  -73.9738 H         1 UNK         0.0793 
    126 H126      -79.9572   30.1255  -75.6075 H         1 UNK         0.0793 
    127 H127      -81.3968   28.9867  -73.8713 H         1 UNK         0.2896 
@<TRIPOS>BOND
     1    1    2 1    
     2    1   67 1    
     3    1   68 1    
     4    1   69 1    
     5    2    3 2    
     6    2    4 am   BACKBONE|DICT|INTERRES
     7    4    5 1    
     8    4   70 1    
     9    5    6 1    
    10    5   65 1    
    11    5   71 1    
    12    6    7 1    
    13    6   72 1    
    14    6   73 1    
    15    7    8 1    
    16    8    9 1    
    17    8   74 1    
    18    8   75 1    
    19    9   10 ar   
    20    9   14 ar   
    21   10   11 ar   
    22   10   76 1    
    23   11   12 ar   
    24   11   48 1    
    25   12   13 ar   
    26   12   77 1    
    27   13   14 ar   
    28   13   15 1    
    29   14   78 1    
    30   15   16 1    
    31   15   79 1    
    32   15   80 1    
    33   16   17 1    
    34   17   18 1    
    35   17   81 1    
    36   17   82 1    
    37   18   19 1    
    38   18   22 1    
    39   18   83 1    
    40   19   20 am   BACKBONE|DICT|INTERRES
    41   19   21 2    
    42   20   84 1    
    43   20   85 1    
    44   22   23 am   BACKBONE|DICT|INTERRES
    45   22   86 1    
    46   23   24 2    
    47   23   25 1    
    48   25   26 1    
    49   25   27 1    
    50   25   87 1    
    51   26   88 1    
    52   26   89 1    
    53   26   90 1    
    54   27   28 am   BACKBONE|DICT|INTERRES
    55   27   91 1    
    56   28   29 2    
    57   28   30 1    
    58   30   31 1    
    59   30   32 1    
    60   30   92 1    
    61   31   93 1    
    62   31   94 1    
    63   31   95 1    
    64   32   33 am   BACKBONE|DICT|INTERRES
    65   32   96 1    
    66   33   34 2    
    67   33   35 1    
    68   35   36 1    
    69   35   37 1    
    70   35   97 1    
    71   36   98 1    
    72   36   99 1    
    73   36  100 1    
    74   37   38 am   BACKBONE|DICT|INTERRES
    75   37  101 1    
    76   38   39 2    
    77   38   40 1    
    78   40   41 1    
    79   40   42 1    
    80   40  102 1    
    81   41  103 1    
    82   41  104 1    
    83   41  105 1    
    84   42   43 am   BACKBONE|DICT|INTERRES
    85   42  106 1    
    86   43   44 2    
    87   43   45 1    
    88   45   46 1    
    89   45   49 1    
    90   45  107 1    
    91   46   47 1    
    92   46  108 1    
    93   46  109 1    
    94   47   48 1    
    95   48  110 1    
    96   48  111 1    
    97   49   50 am   BACKBONE|DICT|INTERRES
    98   49  112 1    
    99   50   51 2    
   100   50   52 1    
   101   52   53 1    
   102   52   54 1    
   103   52  113 1    
   104   53  114 1    
   105   53  115 1    
   106   53  116 1    
   107   54   55 am   BACKBONE|DICT|INTERRES
   108   54  117 1    
   109   55   56 2    
   110   55   57 1    
   111   57   58 1    
   112   57   59 1    
   113   57  118 1    
   114   58  119 1    
   115   58  120 1    
   116   58  121 1    
   117   59   60 am   BACKBONE|DICT|INTERRES
   118   59  122 1    
   119   60   61 2    
   120   60   62 1    
   121   62   63 1    
   122   62   64 1    
   123   62  123 1    
   124   63  124 1    
   125   63  125 1    
   126   63  126 1    
   127   64   65 am   BACKBONE|DICT|INTERRES
   128   64  127 1    
   129   65   66 2    
@<TRIPOS>SUBSTRUCTURE
     1 UNK         1 GROUP             0       ****    0 ROOT    
