@<TRIPOS>MOLECULE
3R135
127   129    1
SMALL
USER_CHARGES


@<TRIPOS>ATOM
      1 CA        -83.8239   27.8580  -70.9973 C.3       0 UNK        -0.1998 
      2 C         -83.5060   27.7199  -72.4786 C.2       0 UNK         0.4909 
      3 O         -84.3755   27.3281  -73.2574 O.2       0 UNK        -0.5240 
      4 N         -82.2670   28.0449  -72.8711 N.am      1 UNK        -0.4739 
      5 CA        -81.7718   27.9613  -74.2512 C.3       1 UNK         0.0864 
      6 C6        -80.4218   28.7037  -74.4293 C.3       11 UNK        -0.0881 
      7 S7        -80.5533   30.5179  -74.2282 S.3       11 UNK        -0.2682 
      8 C8        -80.2446   30.8194  -72.4522 C.3       11 UNK         0.0289 
      9 C9        -78.8706   30.3484  -71.9958 C.ar      11 UNK        -0.0687 
     10 C10       -78.7345   29.1042  -71.3734 C.ar      11 UNK        -0.0823 
     11 C11       -77.4742   28.6317  -71.0034 C.ar      11 UNK        -0.0830 
     12 C12       -76.3536   29.4437  -71.1845 C.ar      11 UNK        -0.1021 
     13 C13       -76.4720   30.6844  -71.8151 C.ar      11 UNK        -0.0753 
     14 C14       -77.7349   31.1379  -72.2141 C.ar      11 UNK        -0.0933 
     15 C15       -75.2143   31.4827  -72.1182 C.3       11 UNK         0.0166 
     16 S16       -74.2575   30.6634  -73.4366 S.3       11 UNK        -0.2615 
     17 C17       -72.5428   31.1589  -73.0466 C.3       11 UNK        -0.0865 
     18 CA        -71.7456   30.1067  -72.2244 C.3       10 UNK         0.0862 
     19 C         -72.1532   30.1122  -70.7198 C.2       10 UNK         0.5551 
     20 N         -72.6759   29.0260  -70.1633 N.am      10 UNK        -0.7319 
     21 O         -71.9806   31.1235  -70.0440 O.2       10 UNK        -0.5018 
     22 N         -71.7322   28.7829  -72.8743 N.am      10 UNK        -0.4509 
     23 C         -70.8884   27.7861  -72.5801 C.2       10 UNK         0.4899 
     24 O         -69.9512   27.8971  -71.7894 O.2       10 UNK        -0.4839 
     25 CA        -71.1262   26.4267  -73.2628 C.3       9 UNK         0.0222 
     26 CB        -72.4048   25.7488  -72.7291 C.3       9 UNK        -0.1966 
     27 N         -71.1005   26.4644  -74.7318 N.am      9 UNK        -0.4218 
     28 C         -71.9575   27.0551  -75.5769 C.2       9 UNK         0.5020 
     29 O         -72.9269   27.7167  -75.2123 O.2       9 UNK        -0.5274 
     30 CA        -71.6879   26.8952  -77.0823 C.3       8 UNK         0.0270 
     31 CB        -70.3738   26.1483  -77.4173 C.3       8 UNK        -0.1976 
     32 N         -72.8295   26.2246  -77.7062 N.am      8 UNK        -0.4313 
     33 C         -73.1144   26.2544  -79.0150 C.2       8 UNK         0.5041 
     34 O         -72.4675   26.9008  -79.8412 O.2       8 UNK        -0.5577 
     35 CA        -74.3054   25.4096  -79.4988 C.3       7 UNK         0.0284 
     36 CB        -74.0085   23.9056  -79.3727 C.3       7 UNK        -0.1958 
     37 N         -75.5482   25.7317  -78.7996 N.am      7 UNK        -0.4454 
     38 C         -76.2592   26.8543  -78.9817 C.2       7 UNK         0.5089 
     39 O         -75.9750   27.7233  -79.8066 O.2       7 UNK        -0.5125 
     40 CA        -77.4929   27.0470  -78.0804 C.3       6 UNK         0.0408 
     41 CB        -78.7264   26.3465  -78.6707 C.3       6 UNK        -0.1791 
     42 N         -77.2534   26.5576  -76.7235 N.am      6 UNK        -0.4762 
     43 C         -76.4085   27.1247  -75.8528 C.2       6 UNK         0.5007 
     44 O         -75.8693   28.2115  -76.0552 O.2       6 UNK        -0.5032 
     45 CA        -76.0981   26.3457  -74.5585 C.3       5 UNK         0.0783 
     46 C46       -77.0025   26.8006  -73.3940 C.3       11 UNK        -0.0857 
     47 S47       -76.3811   26.1940  -71.7796 S.3       11 UNK        -0.2512 
     48 C48       -77.3036   27.1904  -70.5509 C.3       11 UNK         0.0225 
     49 N         -76.1820   24.8987  -74.7584 N.am      5 UNK        -0.4615 
     50 C         -75.2532   24.1459  -75.3553 C.2       4 UNK         0.5053 
     51 O         -74.1999   24.5861  -75.8133 O.2       4 UNK        -0.5105 
     52 CA        -75.5724   22.6469  -75.4875 C.3       4 UNK         0.0263 
     53 CB        -75.1736   21.8993  -74.2054 C.3       4 UNK        -0.1981 
     54 N         -76.9850   22.3894  -75.7892 N.am      4 UNK        -0.4224 
     55 C         -77.5759   22.7313  -76.9427 C.2       3 UNK         0.4895 
     56 O         -76.9824   23.2663  -77.8791 O.2       3 UNK        -0.5091 
     57 CA        -79.0900   22.4739  -77.0626 C.3       3 UNK         0.0250 
     58 CB        -79.3547   21.0149  -77.4679 C.3       3 UNK        -0.1996 
     59 N         -79.8914   22.8072  -75.8743 N.am      3 UNK        -0.4254 
     60 C         -79.8702   23.9785  -75.2215 C.2       2 UNK         0.5004 
     61 O         -79.0477   24.8657  -75.4417 O.2       2 UNK        -0.5226 
     62 CA        -80.9192   24.1859  -74.1137 C.3       2 UNK         0.0269 
     63 CB        -80.4463   23.5233  -72.8091 C.3       2 UNK        -0.1926 
     64 N         -81.1857   25.6058  -73.8452 N.am      2 UNK        -0.4687 
     65 C         -81.6556   26.4981  -74.7331 C.2       1 UNK         0.5165 
     66 O         -82.0064   26.2088  -75.8784 O.2       1 UNK        -0.5079 
     67 H67       -82.9702   28.2247  -70.4276 H         1 UNK         0.0900 
     68 H68       -84.6500   28.5541  -70.8547 H         1 UNK         0.0900 
     69 H69       -84.1169   26.8926  -70.5854 H         1 UNK         0.0900 
     70 H70       -81.6077   28.3800  -72.1871 H         1 UNK         0.2959 
     71 H71       -82.5097   28.4442  -74.8962 H         1 UNK         0.1079 
     72 H72       -80.0368   28.5361  -75.4378 H         1 UNK         0.0837 
     73 H73       -79.6598   28.3007  -73.7646 H         1 UNK         0.0837 
     74 H74       -80.3352   31.8904  -72.2650 H         1 UNK         0.0685 
     75 H75       -81.0295   30.3502  -71.8586 H         1 UNK         0.0685 
     76 H76       -79.6013   28.4750  -71.2331 H         1 UNK         0.1434 
     77 H77       -75.3742   29.0697  -70.9204 H         1 UNK         0.1329 
     78 H78       -77.8325   32.0897  -72.7181 H         1 UNK         0.1335 
     79 H79       -74.6198   31.5660  -71.2082 H         1 UNK         0.0680 
     80 H80       -75.4575   32.5004  -72.4268 H         1 UNK         0.0680 
     81 H81       -72.0323   31.3226  -73.9968 H         1 UNK         0.1032 
     82 H82       -72.5408   32.1321  -72.5516 H         1 UNK         0.1032 
     83 H83       -70.7084   30.4473  -72.2264 H         1 UNK         0.0461 
     84 H84       -72.9233   29.0412  -69.1869 H         1 UNK         0.3453 
     85 H85       -72.8124   28.1922  -70.7097 H         1 UNK         0.3453 
     86 H86       -72.4520   28.6092  -73.5722 H         1 UNK         0.2984 
     87 H87       -70.2883   25.7861  -72.9827 H         1 UNK         0.0554 
     88 H88       -72.3282   25.5651  -71.6569 H         1 UNK         0.0847 
     89 H89       -72.5785   24.7871  -73.2120 H         1 UNK         0.0847 
     90 H90       -73.2902   26.3636  -72.8850 H         1 UNK         0.0847 
     91 H91       -70.3225   25.9746  -75.1514 H         1 UNK         0.3141 
     92 H92       -71.6198   27.9072  -77.4868 H         1 UNK         0.0743 
     93 H93       -70.3999   25.1091  -77.0867 H         1 UNK         0.0784 
     94 H94       -70.1862   26.1421  -78.4911 H         1 UNK         0.0784 
     95 H95       -69.5108   26.6317  -76.9573 H         1 UNK         0.0784 
     96 H96       -73.4216   25.6893  -77.0698 H         1 UNK         0.3213 
     97 H97       -74.4530   25.6273  -80.5590 H         1 UNK         0.0855 
     98 H98       -73.8896   23.5971  -78.3340 H         1 UNK         0.0814 
     99 H99       -73.0890   23.6443  -79.8980 H         1 UNK         0.0814 
    100 H100      -74.8106   23.3076  -79.8059 H         1 UNK         0.0814 
    101 H101      -75.9031   25.0378  -78.1505 H         1 UNK         0.3105 
    102 H102      -77.7067   28.1163  -78.0223 H         1 UNK         0.0547 
    103 H103      -78.9677   26.7499  -79.6548 H         1 UNK         0.0837 
    104 H104      -78.5657   25.2752  -78.7893 H         1 UNK         0.0837 
    105 H105      -79.6032   26.4847  -78.0371 H         1 UNK         0.0837 
    106 H106      -77.7628   25.7277  -76.4254 H         1 UNK         0.3020 
    107 H107      -75.0679   26.5948  -74.3025 H         1 UNK         0.1245 
    108 H108      -78.0300   26.4615  -73.5325 H         1 UNK         0.0781 
    109 H109      -77.0345   27.8898  -73.3888 H         1 UNK         0.0781 
    110 H110      -76.7737   27.1660  -69.5977 H         1 UNK         0.0836 
    111 H111      -78.2729   26.7209  -70.3767 H         1 UNK         0.0836 
    112 H112      -77.0573   24.4715  -74.4899 H         1 UNK         0.3022 
    113 H113      -74.9737   22.2534  -76.3120 H         1 UNK         0.0747 
    114 H114      -75.3181   20.8240  -74.3113 H         1 UNK         0.0793 
    115 H115      -74.1201   22.0620  -73.9724 H         1 UNK         0.0793 
    116 H116      -75.7525   22.2343  -73.3436 H         1 UNK         0.0793 
    117 H117      -77.5441   21.9577  -75.0679 H         1 UNK         0.3047 
    118 H118      -79.4529   23.1138  -77.8692 H         1 UNK         0.0822 
    119 H119      -80.4070   20.8513  -77.7009 H         1 UNK         0.0807 
    120 H120      -79.0727   20.3176  -76.6780 H         1 UNK         0.0807 
    121 H121      -78.7841   20.7467  -78.3585 H         1 UNK         0.0807 
    122 H122      -80.5815   22.1217  -75.6020 H         1 UNK         0.2946 
    123 H123      -81.8557   23.7255  -74.4360 H         1 UNK         0.1144 
    124 H124      -81.1924   23.6221  -72.0203 H         1 UNK         0.0793 
    125 H125      -79.5156   23.9641  -72.4481 H         1 UNK         0.0793 
    126 H126      -80.2684   22.4563  -72.9493 H         1 UNK         0.0793 
    127 H127      -80.9370   25.9414  -72.9274 H         1 UNK         0.2896 
@<TRIPOS>BOND
     1    1    2 1    
     2    1   67 1    
     3    1   68 1    
     4    1   69 1    
     5    2    3 2    
     6    2    4 am   BACKBONE|DICT|INTERRES
     7    4    5 1    
     8    4   70 1    
     9    5    6 1    
    10    5   65 1    
    11    5   71 1    
    12    6    7 1    
    13    6   72 1    
    14    6   73 1    
    15    7    8 1    
    16    8    9 1    
    17    8   74 1    
    18    8   75 1    
    19    9   10 ar   
    20    9   14 ar   
    21   10   11 ar   
    22   10   76 1    
    23   11   12 ar   
    24   11   48 1    
    25   12   13 ar   
    26   12   77 1    
    27   13   14 ar   
    28   13   15 1    
    29   14   78 1    
    30   15   16 1    
    31   15   79 1    
    32   15   80 1    
    33   16   17 1    
    34   17   18 1    
    35   17   81 1    
    36   17   82 1    
    37   18   19 1    
    38   18   22 1    
    39   18   83 1    
    40   19   20 am   BACKBONE|DICT|INTERRES
    41   19   21 2    
    42   20   84 1    
    43   20   85 1    
    44   22   23 am   BACKBONE|DICT|INTERRES
    45   22   86 1    
    46   23   24 2    
    47   23   25 1    
    48   25   26 1    
    49   25   27 1    
    50   25   87 1    
    51   26   88 1    
    52   26   89 1    
    53   26   90 1    
    54   27   28 am   BACKBONE|DICT|INTERRES
    55   27   91 1    
    56   28   29 2    
    57   28   30 1    
    58   30   31 1    
    59   30   32 1    
    60   30   92 1    
    61   31   93 1    
    62   31   94 1    
    63   31   95 1    
    64   32   33 am   BACKBONE|DICT|INTERRES
    65   32   96 1    
    66   33   34 2    
    67   33   35 1    
    68   35   36 1    
    69   35   37 1    
    70   35   97 1    
    71   36   98 1    
    72   36   99 1    
    73   36  100 1    
    74   37   38 am   BACKBONE|DICT|INTERRES
    75   37  101 1    
    76   38   39 2    
    77   38   40 1    
    78   40   41 1    
    79   40   42 1    
    80   40  102 1    
    81   41  103 1    
    82   41  104 1    
    83   41  105 1    
    84   42   43 am   BACKBONE|DICT|INTERRES
    85   42  106 1    
    86   43   44 2    
    87   43   45 1    
    88   45   46 1    
    89   45   49 1    
    90   45  107 1    
    91   46   47 1    
    92   46  108 1    
    93   46  109 1    
    94   47   48 1    
    95   48  110 1    
    96   48  111 1    
    97   49   50 am   BACKBONE|DICT|INTERRES
    98   49  112 1    
    99   50   51 2    
   100   50   52 1    
   101   52   53 1    
   102   52   54 1    
   103   52  113 1    
   104   53  114 1    
   105   53  115 1    
   106   53  116 1    
   107   54   55 am   BACKBONE|DICT|INTERRES
   108   54  117 1    
   109   55   56 2    
   110   55   57 1    
   111   57   58 1    
   112   57   59 1    
   113   57  118 1    
   114   58  119 1    
   115   58  120 1    
   116   58  121 1    
   117   59   60 am   BACKBONE|DICT|INTERRES
   118   59  122 1    
   119   60   61 2    
   120   60   62 1    
   121   62   63 1    
   122   62   64 1    
   123   62  123 1    
   124   63  124 1    
   125   63  125 1    
   126   63  126 1    
   127   64   65 am   BACKBONE|DICT|INTERRES
   128   64  127 1    
   129   65   66 2    
@<TRIPOS>SUBSTRUCTURE
     1 UNK         1 GROUP             0       ****    0 ROOT    
