@<TRIPOS>MOLECULE
3R135
127   129    1
SMALL
USER_CHARGES


@<TRIPOS>ATOM
      1 CA        -80.0025   23.5533  -72.0410 C.3       0 UNK        -0.1998 
      2 C         -80.6737   24.5611  -72.9602 C.2       0 UNK         0.4909 
      3 O         -81.3044   24.1652  -73.9406 O.2       0 UNK        -0.5240 
      4 N         -80.5472   25.8588  -72.6509 N.am      1 UNK        -0.4739 
      5 CA        -81.1442   26.9752  -73.3956 C.3       1 UNK         0.0864 
      6 C6        -80.8715   28.3449  -72.7239 C.3       11 UNK        -0.0881 
      7 S7        -81.5646   28.4270  -71.0355 S.3       11 UNK        -0.2682 
      8 C8        -80.6401   29.8221  -70.2977 C.3       11 UNK         0.0289 
      9 C9        -79.1275   29.6168  -70.2603 C.ar      11 UNK        -0.0687 
     10 C10       -78.5761   28.3730  -69.9336 C.ar      11 UNK        -0.0823 
     11 C11       -77.1947   28.1727  -69.9841 C.ar      11 UNK        -0.0830 
     12 C12       -76.3527   29.2456  -70.2860 C.ar      11 UNK        -0.1021 
     13 C13       -76.8867   30.4985  -70.5942 C.ar      11 UNK        -0.0753 
     14 C14       -78.2736   30.6789  -70.5787 C.ar      11 UNK        -0.0933 
     15 C15       -75.9625   31.6491  -70.9635 C.3       11 UNK         0.0166 
     16 S16       -75.9318   31.9637  -72.7587 S.3       11 UNK        -0.2615 
     17 C17       -75.1307   30.4653  -73.4311 C.3       11 UNK        -0.0865 
     18 CA        -73.6075   30.6525  -73.6669 C.3       10 UNK         0.0862 
     19 C         -72.7771   30.2941  -72.4074 C.2       10 UNK         0.5551 
     20 N         -72.1850   31.2795  -71.7469 N.am      10 UNK        -0.7319 
     21 O         -72.7023   29.1356  -72.0039 O.2       10 UNK        -0.5018 
     22 N         -73.1570   29.8829  -74.8325 N.am      10 UNK        -0.4509 
     23 C         -72.0831   30.1876  -75.5716 C.2       10 UNK         0.4899 
     24 O         -71.3488   31.1507  -75.3426 O.2       10 UNK        -0.4839 
     25 CA        -71.8156   29.2937  -76.7972 C.3       9 UNK         0.0222 
     26 CB        -70.4760   29.6031  -77.5008 C.3       9 UNK        -0.1966 
     27 N         -71.9483   27.8617  -76.5127 N.am      9 UNK        -0.4218 
     28 C         -71.1842   27.1096  -75.7050 C.2       9 UNK         0.5020 
     29 O         -70.2263   27.5503  -75.0676 O.2       9 UNK        -0.5274 
     30 CA        -71.5251   25.6084  -75.5765 C.3       8 UNK         0.0270 
     31 CB        -71.8450   25.2499  -74.1149 C.3       8 UNK        -0.1976 
     32 N         -72.6356   25.1685  -76.4278 N.am      8 UNK        -0.4313 
     33 C         -72.5720   24.9649  -77.7511 C.2       8 UNK         0.5041 
     34 O         -71.5319   25.0408  -78.4054 O.2       8 UNK        -0.5577 
     35 CA        -73.9048   24.6902  -78.4756 C.3       7 UNK         0.0284 
     36 CB        -74.2467   23.1923  -78.4542 C.3       7 UNK        -0.1958 
     37 N         -75.0235   25.4668  -77.9263 N.am      7 UNK        -0.4454 
     38 C         -75.0910   26.8072  -77.9389 C.2       7 UNK         0.5089 
     39 O         -74.2486   27.5288  -78.4710 O.2       7 UNK        -0.5125 
     40 CA        -76.2495   27.4580  -77.1685 C.3       6 UNK         0.0408 
     41 CB        -77.5181   27.5097  -78.0289 C.3       6 UNK        -0.1791 
     42 N         -76.5191   26.7664  -75.9066 N.am      6 UNK        -0.4762 
     43 C         -75.6857   26.7773  -74.8564 C.2       6 UNK         0.5007 
     44 O         -74.6516   27.4437  -74.8240 O.2       6 UNK        -0.5032 
     45 CA        -76.0314   25.8645  -73.6637 C.3       5 UNK         0.0783 
     46 C46       -76.9314   26.5975  -72.6520 C.3       11 UNK        -0.0857 
     47 S47       -77.1994   25.6383  -71.1178 S.3       11 UNK        -0.2512 
     48 C48       -76.6159   26.7759  -69.8120 C.3       11 UNK         0.0225 
     49 N         -76.5997   24.5862  -74.1014 N.am      5 UNK        -0.4615 
     50 C         -75.8826   23.6338  -74.7079 C.2       4 UNK         0.5053 
     51 O         -74.6860   23.7496  -74.9670 O.2       4 UNK        -0.5105 
     52 CA        -76.6144   22.3454  -75.1151 C.3       4 UNK         0.0263 
     53 CB        -76.6191   21.3433  -73.9498 C.3       4 UNK        -0.1981 
     54 N         -77.9846   22.5357  -75.6032 N.am      4 UNK        -0.4224 
     55 C         -78.3460   23.3043  -76.6414 C.2       3 UNK         0.4895 
     56 O         -77.5691   24.0561  -77.2330 O.2       3 UNK        -0.5091 
     57 CA        -79.8050   23.1931  -77.1220 C.3       3 UNK         0.0250 
     58 CB        -80.5842   22.0069  -76.5150 C.3       3 UNK        -0.1996 
     59 N         -80.5229   24.4359  -76.8423 N.am      3 UNK        -0.4254 
     60 C         -80.6574   25.4503  -77.7096 C.2       2 UNK         0.5004 
     61 O         -80.2468   25.4121  -78.8702 O.2       2 UNK        -0.5226 
     62 CA        -81.3914   26.7226  -77.2368 C.3       2 UNK         0.0269 
     63 CB        -82.7396   26.8681  -77.9634 C.3       2 UNK        -0.1926 
     64 N         -81.6276   26.7959  -75.7921 N.am      2 UNK        -0.4687 
     65 C         -80.6777   26.9779  -74.8658 C.2       1 UNK         0.5165 
     66 O         -79.4815   27.1081  -75.1283 O.2       1 UNK        -0.5079 
     67 H67       -80.6579   22.6982  -71.8775 H         1 UNK         0.0900 
     68 H68       -79.7711   23.9870  -71.0684 H         1 UNK         0.0900 
     69 H69       -79.0766   23.1935  -72.4863 H         1 UNK         0.0900 
     70 H70       -80.0071   26.1242  -71.8399 H         1 UNK         0.2959 
     71 H71       -82.2243   26.8132  -73.3851 H         1 UNK         0.1079 
     72 H72       -79.7984   28.5423  -72.6918 H         1 UNK         0.0837 
     73 H73       -81.3142   29.1552  -73.3064 H         1 UNK         0.0837 
     74 H74       -80.9950   29.9765  -69.2781 H         1 UNK         0.0685 
     75 H75       -80.8889   30.7279  -70.8530 H         1 UNK         0.0685 
     76 H76       -79.2236   27.5398  -69.6988 H         1 UNK         0.1434 
     77 H77       -75.2820   29.0950  -70.3284 H         1 UNK         0.1329 
     78 H78       -78.6859   31.6457  -70.8341 H         1 UNK         0.1335 
     79 H79       -76.2974   32.5549  -70.4560 H         1 UNK         0.0680 
     80 H80       -74.9483   31.4619  -70.6082 H         1 UNK         0.0680 
     81 H81       -75.6304   30.2634  -74.3802 H         1 UNK         0.1032 
     82 H82       -75.3414   29.5923  -72.8146 H         1 UNK         0.1032 
     83 H83       -73.4378   31.7054  -73.9039 H         1 UNK         0.0461 
     84 H84       -72.2460   32.2318  -72.0719 H         1 UNK         0.3453 
     85 H85       -71.6511   31.0649  -70.9196 H         1 UNK         0.3453 
     86 H86       -73.6567   29.0143  -75.0098 H         1 UNK         0.2984 
     87 H87       -72.6092   29.5268  -77.5082 H         1 UNK         0.0554 
     88 H88       -70.4446   30.6387  -77.8412 H         1 UNK         0.0847 
     89 H89       -70.3333   28.9711  -78.3773 H         1 UNK         0.0847 
     90 H90       -69.6233   29.4555  -76.8375 H         1 UNK         0.0847 
     91 H91       -72.7191   27.4076  -76.9883 H         1 UNK         0.3141 
     92 H92       -70.6328   25.0529  -75.8719 H         1 UNK         0.0743 
     93 H93       -71.0028   25.4799  -73.4610 H         1 UNK         0.0784 
     94 H94       -72.7042   25.8087  -73.7439 H         1 UNK         0.0784 
     95 H95       -72.0598   24.1870  -74.0025 H         1 UNK         0.0784 
     96 H96       -73.5167   24.9814  -75.9570 H         1 UNK         0.3213 
     97 H97       -73.7797   24.9927  -79.5175 H         1 UNK         0.0855 
     98 H98       -74.3460   22.8129  -77.4379 H         1 UNK         0.0814 
     99 H99       -73.4640   22.6096  -78.9416 H         1 UNK         0.0814 
    100 H100      -75.1793   22.9889  -78.9809 H         1 UNK         0.0814 
    101 H101      -75.7919   24.9503  -77.5064 H         1 UNK         0.3105 
    102 H102      -75.9620   28.4854  -76.9348 H         1 UNK         0.0547 
    103 H103      -77.3415   28.0654  -78.9506 H         1 UNK         0.0837 
    104 H104      -77.8532   26.5121  -78.3110 H         1 UNK         0.0837 
    105 H105      -78.3325   28.0058  -77.5021 H         1 UNK         0.0837 
    106 H106      -77.3679   26.2174  -75.8570 H         1 UNK         0.3020 
    107 H107      -75.0870   25.6483  -73.1585 H         1 UNK         0.1245 
    108 H108      -77.9029   26.8257  -73.0886 H         1 UNK         0.0781 
    109 H109      -76.4822   27.5590  -72.4115 H         1 UNK         0.0781 
    110 H110      -76.9016   26.3806  -68.8363 H         1 UNK         0.0836 
    111 H111      -75.5252   26.8007  -69.8291 H         1 UNK         0.0836 
    112 H112      -77.5806   24.4346  -73.9268 H         1 UNK         0.3022 
    113 H113      -76.0468   21.9015  -75.9350 H         1 UNK         0.0747 
    114 H114      -75.6050   21.1575  -73.5923 H         1 UNK         0.0793 
    115 H115      -77.1996   21.7078  -73.1019 H         1 UNK         0.0793 
    116 H116      -77.0328   20.3813  -74.2531 H         1 UNK         0.0793 
    117 H117      -78.6943   21.9526  -75.1843 H         1 UNK         0.3047 
    118 H118      -79.7606   23.0268  -78.2005 H         1 UNK         0.0822 
    119 H119      -81.5855   21.9441  -76.9417 H         1 UNK         0.0807 
    120 H120      -80.6983   22.0886  -75.4341 H         1 UNK         0.0807 
    121 H121      -80.0907   21.0580  -76.7301 H         1 UNK         0.0807 
    122 H122      -80.8821   24.5444  -75.8986 H         1 UNK         0.2946 
    123 H123      -80.7617   27.5698  -77.5167 H         1 UNK         0.1144 
    124 H124      -82.6042   26.8646  -79.0460 H         1 UNK         0.0793 
    125 H125      -83.2315   27.8062  -77.7056 H         1 UNK         0.0793 
    126 H126      -83.4198   26.0515  -77.7181 H         1 UNK         0.0793 
    127 H127      -82.5816   26.6590  -75.4893 H         1 UNK         0.2896 
@<TRIPOS>BOND
     1    1    2 1    
     2    1   67 1    
     3    1   68 1    
     4    1   69 1    
     5    2    3 2    
     6    2    4 am   BACKBONE|DICT|INTERRES
     7    4    5 1    
     8    4   70 1    
     9    5    6 1    
    10    5   65 1    
    11    5   71 1    
    12    6    7 1    
    13    6   72 1    
    14    6   73 1    
    15    7    8 1    
    16    8    9 1    
    17    8   74 1    
    18    8   75 1    
    19    9   10 ar   
    20    9   14 ar   
    21   10   11 ar   
    22   10   76 1    
    23   11   12 ar   
    24   11   48 1    
    25   12   13 ar   
    26   12   77 1    
    27   13   14 ar   
    28   13   15 1    
    29   14   78 1    
    30   15   16 1    
    31   15   79 1    
    32   15   80 1    
    33   16   17 1    
    34   17   18 1    
    35   17   81 1    
    36   17   82 1    
    37   18   19 1    
    38   18   22 1    
    39   18   83 1    
    40   19   20 am   BACKBONE|DICT|INTERRES
    41   19   21 2    
    42   20   84 1    
    43   20   85 1    
    44   22   23 am   BACKBONE|DICT|INTERRES
    45   22   86 1    
    46   23   24 2    
    47   23   25 1    
    48   25   26 1    
    49   25   27 1    
    50   25   87 1    
    51   26   88 1    
    52   26   89 1    
    53   26   90 1    
    54   27   28 am   BACKBONE|DICT|INTERRES
    55   27   91 1    
    56   28   29 2    
    57   28   30 1    
    58   30   31 1    
    59   30   32 1    
    60   30   92 1    
    61   31   93 1    
    62   31   94 1    
    63   31   95 1    
    64   32   33 am   BACKBONE|DICT|INTERRES
    65   32   96 1    
    66   33   34 2    
    67   33   35 1    
    68   35   36 1    
    69   35   37 1    
    70   35   97 1    
    71   36   98 1    
    72   36   99 1    
    73   36  100 1    
    74   37   38 am   BACKBONE|DICT|INTERRES
    75   37  101 1    
    76   38   39 2    
    77   38   40 1    
    78   40   41 1    
    79   40   42 1    
    80   40  102 1    
    81   41  103 1    
    82   41  104 1    
    83   41  105 1    
    84   42   43 am   BACKBONE|DICT|INTERRES
    85   42  106 1    
    86   43   44 2    
    87   43   45 1    
    88   45   46 1    
    89   45   49 1    
    90   45  107 1    
    91   46   47 1    
    92   46  108 1    
    93   46  109 1    
    94   47   48 1    
    95   48  110 1    
    96   48  111 1    
    97   49   50 am   BACKBONE|DICT|INTERRES
    98   49  112 1    
    99   50   51 2    
   100   50   52 1    
   101   52   53 1    
   102   52   54 1    
   103   52  113 1    
   104   53  114 1    
   105   53  115 1    
   106   53  116 1    
   107   54   55 am   BACKBONE|DICT|INTERRES
   108   54  117 1    
   109   55   56 2    
   110   55   57 1    
   111   57   58 1    
   112   57   59 1    
   113   57  118 1    
   114   58  119 1    
   115   58  120 1    
   116   58  121 1    
   117   59   60 am   BACKBONE|DICT|INTERRES
   118   59  122 1    
   119   60   61 2    
   120   60   62 1    
   121   62   63 1    
   122   62   64 1    
   123   62  123 1    
   124   63  124 1    
   125   63  125 1    
   126   63  126 1    
   127   64   65 am   BACKBONE|DICT|INTERRES
   128   64  127 1    
   129   65   66 2    
@<TRIPOS>SUBSTRUCTURE
     1 UNK         1 GROUP             0       ****    0 ROOT    
