@<TRIPOS>MOLECULE
3R135
127   129    1
SMALL
USER_CHARGES


@<TRIPOS>ATOM
      1 CA        -84.9846   26.9117  -73.1022 C.3       0 UNK        -0.1998 
      2 C         -83.9126   27.1856  -72.0503 C.2       0 UNK         0.4909 
      3 O         -84.1376   26.9046  -70.8749 O.2       0 UNK        -0.5240 
      4 N         -82.7417   27.7359  -72.4035 N.am      1 UNK        -0.4739 
      5 CA        -82.2860   28.0869  -73.7568 C.3       1 UNK         0.0864 
      6 C6        -81.0191   28.9758  -73.7232 C.3       11 UNK        -0.0881 
      7 S7        -81.3217   30.6120  -72.9668 S.3       11 UNK        -0.2682 
      8 C8        -80.8948   30.3625  -71.2098 C.3       11 UNK         0.0289 
      9 C9        -79.4459   29.9427  -71.0134 C.ar      11 UNK        -0.0687 
     10 C10       -79.1318   28.6161  -70.6999 C.ar      11 UNK        -0.0823 
     11 C11       -77.7998   28.2219  -70.5522 C.ar      11 UNK        -0.0830 
     12 C12       -76.7854   29.1754  -70.6583 C.ar      11 UNK        -0.1021 
     13 C13       -77.0820   30.4985  -70.9956 C.ar      11 UNK        -0.0753 
     14 C14       -78.4172   30.8782  -71.1641 C.ar      11 UNK        -0.0933 
     15 C15       -75.9609   31.5066  -71.2103 C.3       11 UNK         0.0166 
     16 S16       -75.0528   31.1800  -72.7603 S.3       11 UNK        -0.2615 
     17 C17       -73.8963   29.8654  -72.2401 C.3       11 UNK        -0.0865 
     18 CA        -72.5077   30.0042  -72.9078 C.3       10 UNK         0.0862 
     19 C         -71.4490   29.1483  -72.1637 C.2       10 UNK         0.5551 
     20 N         -70.4876   29.7776  -71.5026 N.am      10 UNK        -0.7319 
     21 O         -71.5255   27.9222  -72.1432 O.2       10 UNK        -0.5018 
     22 N         -72.5585   29.6273  -74.3243 N.am      10 UNK        -0.4509 
     23 C         -71.6459   29.9951  -75.2309 C.2       10 UNK         0.4899 
     24 O         -70.7594   30.8249  -75.0189 O.2       10 UNK        -0.4839 
     25 CA        -71.7359   29.2834  -76.5919 C.3       9 UNK         0.0222 
     26 CB        -70.6223   29.6978  -77.5767 C.3       9 UNK        -0.1966 
     27 N         -71.7825   27.8262  -76.4330 N.am      9 UNK        -0.4218 
     28 C         -70.8663   27.0267  -75.8619 C.2       9 UNK         0.5020 
     29 O         -69.7768   27.4147  -75.4381 O.2       9 UNK        -0.5274 
     30 CA        -71.2206   25.5321  -75.7305 C.3       8 UNK         0.0270 
     31 CB        -71.6188   25.2055  -74.2822 C.3       8 UNK        -0.1976 
     32 N         -72.2944   25.1027  -76.6309 N.am      8 UNK        -0.4313 
     33 C         -72.1697   24.9903  -77.9608 C.2       8 UNK         0.5041 
     34 O         -71.1073   25.1423  -78.5651 O.2       8 UNK        -0.5577 
     35 CA        -73.4523   24.6971  -78.7558 C.3       7 UNK         0.0284 
     36 CB        -73.7405   23.1877  -78.7784 C.3       7 UNK        -0.1958 
     37 N         -74.6221   25.4208  -78.2457 N.am      7 UNK        -0.4454 
     38 C         -74.7583   26.7554  -78.2417 C.2       7 UNK         0.5089 
     39 O         -73.9161   27.5305  -78.6924 O.2       7 UNK        -0.5125 
     40 CA        -76.0245   27.3299  -77.5854 C.3       6 UNK         0.0408 
     41 CB        -77.2327   27.2256  -78.5290 C.3       6 UNK        -0.1791 
     42 N         -76.3345   26.6832  -76.3108 N.am      6 UNK        -0.4762 
     43 C         -75.5899   26.7798  -75.1982 C.2       6 UNK         0.5007 
     44 O         -74.5746   27.4728  -75.1015 O.2       6 UNK        -0.5032 
     45 CA        -76.0551   25.9267  -74.0021 C.3       5 UNK         0.0783 
     46 C46       -77.1623   26.6763  -73.2222 C.3       11 UNK        -0.0857 
     47 S47       -77.8561   25.7357  -71.8124 S.3       11 UNK        -0.2512 
     48 C48       -77.4399   26.7557  -70.3535 C.3       11 UNK         0.0225 
     49 N         -76.4786   24.5931  -74.4417 N.am      5 UNK        -0.4615 
     50 C         -75.6631   23.6664  -74.9637 C.2       4 UNK         0.5053 
     51 O         -74.4541   23.8304  -75.1227 O.2       4 UNK        -0.5105 
     52 CA        -76.3121   22.3512  -75.4271 C.3       4 UNK         0.0263 
     53 CB        -76.4974   21.3939  -74.2392 C.3       4 UNK        -0.1981 
     54 N         -77.5982   22.5564  -76.0976 N.am      4 UNK        -0.4224 
     55 C         -77.7596   23.2333  -77.2441 C.2       3 UNK         0.4895 
     56 O         -76.8304   23.7073  -77.8942 O.2       3 UNK        -0.5091 
     57 CA        -79.2010   23.4654  -77.7272 C.3       3 UNK         0.0250 
     58 CB        -79.6394   22.3357  -78.6723 C.3       3 UNK        -0.1996 
     59 N         -80.1747   23.6026  -76.6389 N.am      3 UNK        -0.4254 
     60 C         -80.1371   24.5522  -75.6936 C.2       2 UNK         0.5004 
     61 O         -79.2527   25.4093  -75.6154 O.2       2 UNK        -0.5226 
     62 CA        -81.2390   24.4753  -74.6233 C.3       2 UNK         0.0269 
     63 CB        -80.8441   23.4712  -73.5273 C.3       2 UNK        -0.1926 
     64 N         -81.5182   25.7678  -73.9957 N.am      2 UNK        -0.4687 
     65 C         -82.0370   26.8343  -74.6212 C.2       1 UNK         0.5165 
     66 O         -82.3643   26.8431  -75.8084 O.2       1 UNK        -0.5079 
     67 H67       -85.1352   27.7688  -73.7570 H         1 UNK         0.0900 
     68 H68       -84.7194   26.0453  -73.7073 H         1 UNK         0.0900 
     69 H69       -85.9396   26.6993  -72.6218 H         1 UNK         0.0900 
     70 H70       -82.0738   27.9203  -71.6715 H         1 UNK         0.2959 
     71 H71       -83.0749   28.6614  -74.2460 H         1 UNK         0.1079 
     72 H72       -80.6684   29.1654  -74.7400 H         1 UNK         0.0837 
     73 H73       -80.1938   28.4677  -73.2238 H         1 UNK         0.0837 
     74 H74       -81.5742   29.6358  -70.7640 H         1 UNK         0.0685 
     75 H75       -81.0695   31.2976  -70.6757 H         1 UNK         0.0685 
     76 H76       -79.9163   27.8777  -70.6111 H         1 UNK         0.1434 
     77 H77       -75.7582   28.8702  -70.5287 H         1 UNK         0.1329 
     78 H78       -78.6595   31.8982  -71.4297 H         1 UNK         0.1335 
     79 H79       -75.2805   31.5003  -70.3578 H         1 UNK         0.0680 
     80 H80       -76.3691   32.5172  -71.2605 H         1 UNK         0.0680 
     81 H81       -73.7866   29.9130  -71.1552 H         1 UNK         0.1032 
     82 H82       -74.3354   28.8909  -72.4623 H         1 UNK         0.1032 
     83 H83       -72.2085   31.0528  -72.8404 H         1 UNK         0.0461 
     84 H84       -69.8023   29.2351  -71.0006 H         1 UNK         0.3453 
     85 H85       -70.4204   30.7836  -71.5141 H         1 UNK         0.3453 
     86 H86       -73.2344   28.9120  -74.5744 H         1 UNK         0.2984 
     87 H87       -72.6910   29.5743  -77.0316 H         1 UNK         0.0554 
     88 H88       -70.6548   30.7703  -77.7718 H         1 UNK         0.0847 
     89 H89       -70.7341   29.1902  -78.5348 H         1 UNK         0.0847 
     90 H90       -69.6291   29.4686  -77.1893 H         1 UNK         0.0847 
     91 H91       -72.6444   27.3940  -76.7399 H         1 UNK         0.3141 
     92 H92       -70.3231   24.9603  -75.9751 H         1 UNK         0.0743 
     93 H93       -70.8266   25.4844  -73.5860 H         1 UNK         0.0784 
     94 H94       -72.5181   25.7451  -73.9818 H         1 UNK         0.0784 
     95 H95       -71.8063   24.1397  -74.1508 H         1 UNK         0.0784 
     96 H96       -73.1858   24.8710  -76.1991 H         1 UNK         0.3213 
     97 H97       -73.2847   25.0267  -79.7834 H         1 UNK         0.0855 
     98 H98       -73.9509   22.8024  -77.7803 H         1 UNK         0.0814 
     99 H99       -72.8874   22.6325  -79.1705 H         1 UNK         0.0814 
    100 H100      -74.5962   22.9570  -79.4131 H         1 UNK         0.0814 
    101 H101      -75.3999   24.8504  -77.9173 H         1 UNK         0.3105 
    102 H102      -75.8451   28.3883  -77.3843 H         1 UNK         0.0547 
    103 H103      -78.1236   27.6693  -78.0841 H         1 UNK         0.0837 
    104 H104      -77.4649   26.1910  -78.7812 H         1 UNK         0.0837 
    105 H105      -77.0407   27.7522  -79.4647 H         1 UNK         0.0837 
    106 H106      -77.1638   26.1013  -76.2784 H         1 UNK         0.3020 
    107 H107      -75.1956   25.7996  -73.3399 H         1 UNK         0.1245 
    108 H108      -77.9972   26.9259  -73.8791 H         1 UNK         0.0781 
    109 H109      -76.7682   27.6328  -72.8817 H         1 UNK         0.0781 
    110 H110      -76.3762   26.6414  -70.1392 H         1 UNK         0.0836 
    111 H111      -77.9707   26.3669  -69.4834 H         1 UNK         0.0836 
    112 H112      -77.4704   24.4084  -74.3905 H         1 UNK         0.3022 
    113 H113      -75.6342   21.8812  -76.1426 H         1 UNK         0.0747 
    114 H114      -76.8792   20.4261  -74.5650 H         1 UNK         0.0793 
    115 H115      -75.5474   21.2120  -73.7345 H         1 UNK         0.0793 
    116 H116      -77.1886   21.7962  -73.4972 H         1 UNK         0.0793 
    117 H117      -78.4195   22.1949  -75.6360 H         1 UNK         0.3047 
    118 H118      -79.2066   24.4017  -78.2891 H         1 UNK         0.0822 
    119 H119      -80.6209   22.5357  -79.1026 H         1 UNK         0.0807 
    120 H120      -79.6854   21.3735  -78.1606 H         1 UNK         0.0807 
    121 H121      -78.9401   22.2296  -79.5031 H         1 UNK         0.0807 
    122 H122      -80.9269   22.9284  -76.6229 H         1 UNK         0.2946 
    123 H123      -82.1598   24.1341  -75.1021 H         1 UNK         0.1144 
    124 H124      -79.9273   23.7701  -73.0176 H         1 UNK         0.0793 
    125 H125      -80.6765   22.4767  -73.9427 H         1 UNK         0.0793 
    126 H126      -81.6282   23.3753  -72.7758 H         1 UNK         0.0793 
    127 H127      -81.2725   25.8587  -73.0211 H         1 UNK         0.2896 
@<TRIPOS>BOND
     1    1    2 1    
     2    1   67 1    
     3    1   68 1    
     4    1   69 1    
     5    2    3 2    
     6    2    4 am   BACKBONE|DICT|INTERRES
     7    4    5 1    
     8    4   70 1    
     9    5    6 1    
    10    5   65 1    
    11    5   71 1    
    12    6    7 1    
    13    6   72 1    
    14    6   73 1    
    15    7    8 1    
    16    8    9 1    
    17    8   74 1    
    18    8   75 1    
    19    9   10 ar   
    20    9   14 ar   
    21   10   11 ar   
    22   10   76 1    
    23   11   12 ar   
    24   11   48 1    
    25   12   13 ar   
    26   12   77 1    
    27   13   14 ar   
    28   13   15 1    
    29   14   78 1    
    30   15   16 1    
    31   15   79 1    
    32   15   80 1    
    33   16   17 1    
    34   17   18 1    
    35   17   81 1    
    36   17   82 1    
    37   18   19 1    
    38   18   22 1    
    39   18   83 1    
    40   19   20 am   BACKBONE|DICT|INTERRES
    41   19   21 2    
    42   20   84 1    
    43   20   85 1    
    44   22   23 am   BACKBONE|DICT|INTERRES
    45   22   86 1    
    46   23   24 2    
    47   23   25 1    
    48   25   26 1    
    49   25   27 1    
    50   25   87 1    
    51   26   88 1    
    52   26   89 1    
    53   26   90 1    
    54   27   28 am   BACKBONE|DICT|INTERRES
    55   27   91 1    
    56   28   29 2    
    57   28   30 1    
    58   30   31 1    
    59   30   32 1    
    60   30   92 1    
    61   31   93 1    
    62   31   94 1    
    63   31   95 1    
    64   32   33 am   BACKBONE|DICT|INTERRES
    65   32   96 1    
    66   33   34 2    
    67   33   35 1    
    68   35   36 1    
    69   35   37 1    
    70   35   97 1    
    71   36   98 1    
    72   36   99 1    
    73   36  100 1    
    74   37   38 am   BACKBONE|DICT|INTERRES
    75   37  101 1    
    76   38   39 2    
    77   38   40 1    
    78   40   41 1    
    79   40   42 1    
    80   40  102 1    
    81   41  103 1    
    82   41  104 1    
    83   41  105 1    
    84   42   43 am   BACKBONE|DICT|INTERRES
    85   42  106 1    
    86   43   44 2    
    87   43   45 1    
    88   45   46 1    
    89   45   49 1    
    90   45  107 1    
    91   46   47 1    
    92   46  108 1    
    93   46  109 1    
    94   47   48 1    
    95   48  110 1    
    96   48  111 1    
    97   49   50 am   BACKBONE|DICT|INTERRES
    98   49  112 1    
    99   50   51 2    
   100   50   52 1    
   101   52   53 1    
   102   52   54 1    
   103   52  113 1    
   104   53  114 1    
   105   53  115 1    
   106   53  116 1    
   107   54   55 am   BACKBONE|DICT|INTERRES
   108   54  117 1    
   109   55   56 2    
   110   55   57 1    
   111   57   58 1    
   112   57   59 1    
   113   57  118 1    
   114   58  119 1    
   115   58  120 1    
   116   58  121 1    
   117   59   60 am   BACKBONE|DICT|INTERRES
   118   59  122 1    
   119   60   61 2    
   120   60   62 1    
   121   62   63 1    
   122   62   64 1    
   123   62  123 1    
   124   63  124 1    
   125   63  125 1    
   126   63  126 1    
   127   64   65 am   BACKBONE|DICT|INTERRES
   128   64  127 1    
   129   65   66 2    
@<TRIPOS>SUBSTRUCTURE
     1 UNK         1 GROUP             0       ****    0 ROOT    
