@<TRIPOS>MOLECULE
3R135
127   129    1
SMALL
USER_CHARGES


@<TRIPOS>ATOM
      1 CA        -84.0265   25.9876  -76.5878 C.3       0 UNK        -0.1998 
      2 C         -82.8772   26.9165  -76.2263 C.2       0 UNK         0.4909 
      3 O         -82.1169   27.3179  -77.1082 O.2       0 UNK        -0.5240 
      4 N         -82.7501   27.2593  -74.9360 N.am      1 UNK        -0.4739 
      5 CA        -81.7087   28.1242  -74.3674 C.3       1 UNK         0.0864 
      6 C6        -81.9425   28.3374  -72.8489 C.3       11 UNK        -0.0881 
      7 S7        -81.0902   29.8098  -72.1814 S.3       11 UNK        -0.2682 
      8 C8        -80.3755   29.1774  -70.6239 C.3       11 UNK         0.0289 
      9 C9        -78.8639   29.0129  -70.7131 C.ar      11 UNK        -0.0687 
     10 C10       -78.3090   28.0351  -71.5411 C.ar      11 UNK        -0.0823 
     11 C11       -76.9235   27.9026  -71.6600 C.ar      11 UNK        -0.0830 
     12 C12       -76.0871   28.7169  -70.8909 C.ar      11 UNK        -0.1021 
     13 C13       -76.6273   29.6845  -70.0366 C.ar      11 UNK        -0.0753 
     14 C14       -78.0165   29.8359  -69.9646 C.ar      11 UNK        -0.0933 
     15 C15       -75.7235   30.5557  -69.1731 C.3       11 UNK         0.0166 
     16 S16       -74.7479   31.7415  -70.1549 S.3       11 UNK        -0.2615 
     17 C17       -73.1543   30.8614  -70.3134 C.3       11 UNK        -0.0865 
     18 CA        -72.5081   30.9889  -71.7173 C.3       10 UNK         0.0862 
     19 C         -71.1157   30.2890  -71.7277 C.2       10 UNK         0.5551 
     20 N         -70.9359   29.1650  -72.4118 N.am      10 UNK        -0.7319 
     21 O         -70.1818   30.7796  -71.0980 O.2       10 UNK        -0.5018 
     22 N         -73.4191   30.5594  -72.7908 N.am      10 UNK        -0.4509 
     23 C         -73.2237   30.8044  -74.0912 C.2       10 UNK         0.4899 
     24 O         -72.3053   31.4956  -74.5365 O.2       10 UNK        -0.4839 
     25 CA        -74.2047   30.1307  -75.0664 C.3       9 UNK         0.0222 
     26 CB        -74.7919   31.1620  -76.0457 C.3       9 UNK        -0.1966 
     27 N         -73.5552   29.0590  -75.8269 N.am      9 UNK        -0.4218 
     28 C         -72.9184   27.9972  -75.3141 C.2       9 UNK         0.5020 
     29 O         -72.8547   27.7546  -74.1071 O.2       9 UNK        -0.5274 
     30 CA        -72.2616   27.0419  -76.3289 C.3       8 UNK         0.0270 
     31 CB        -71.3307   26.0167  -75.6564 C.3       8 UNK        -0.1976 
     32 N         -73.2694   26.3364  -77.1252 N.am      8 UNK        -0.4313 
     33 C         -73.9401   26.8752  -78.1534 C.2       8 UNK         0.5041 
     34 O         -73.7420   28.0265  -78.5479 O.2       8 UNK        -0.5577 
     35 CA        -75.0460   26.0443  -78.8284 C.3       7 UNK         0.0284 
     36 CB        -74.8897   25.9937  -80.3630 C.3       7 UNK        -0.1958 
     37 N         -75.2563   24.7153  -78.2382 N.am      7 UNK        -0.4454 
     38 C         -74.5418   23.5936  -78.4126 C.2       7 UNK         0.5089 
     39 O         -73.5378   23.5143  -79.1210 O.2       7 UNK        -0.5125 
     40 CA        -75.0445   22.3577  -77.6370 C.3       6 UNK         0.0408 
     41 CB        -74.0650   21.1659  -77.6909 C.3       6 UNK        -0.1791 
     42 N         -75.4167   22.6762  -76.2521 N.am      6 UNK        -0.4762 
     43 C         -74.6103   23.1678  -75.2950 C.2       6 UNK         0.5007 
     44 O         -73.4059   23.3524  -75.4673 O.2       6 UNK        -0.5032 
     45 CA        -75.2464   23.5739  -73.9461 C.3       5 UNK         0.0783 
     46 C46       -74.6272   24.9024  -73.4373 C.3       11 UNK        -0.0857 
     47 S47       -75.4020   25.5734  -71.9251 S.3       11 UNK        -0.2512 
     48 C48       -76.3352   26.9381  -72.6769 C.3       11 UNK         0.0225 
     49 N         -76.7045   23.6534  -74.0745 N.am      5 UNK        -0.4615 
     50 C         -77.5716   22.7544  -73.5910 C.2       4 UNK         0.5053 
     51 O         -77.2400   21.7679  -72.9334 O.2       4 UNK        -0.5105 
     52 CA        -79.0627   22.9714  -73.9110 C.3       4 UNK         0.0263 
     53 CB        -79.7778   23.5989  -72.7036 C.3       4 UNK        -0.1981 
     54 N         -79.2909   23.8000  -75.1003 N.am      4 UNK        -0.4224 
     55 C         -78.9674   23.4371  -76.3525 C.2       3 UNK         0.4895 
     56 O         -78.4813   22.3424  -76.6361 O.2       3 UNK        -0.5091 
     57 CA        -79.1499   24.4766  -77.4753 C.3       3 UNK         0.0250 
     58 CB        -80.4942   24.2615  -78.1862 C.3       3 UNK        -0.1996 
     59 N         -79.0565   25.8696  -77.0290 N.am      3 UNK        -0.4254 
     60 C         -78.0043   26.4168  -76.4022 C.2       2 UNK         0.5004 
     61 O         -76.9611   25.8073  -76.1593 O.2       2 UNK        -0.5226 
     62 CA        -78.1622   27.8676  -75.9135 C.3       2 UNK         0.0269 
     63 CB        -77.6876   28.8393  -77.0030 C.3       2 UNK        -0.1926 
     64 N         -79.5229   28.2359  -75.4959 N.am      2 UNK        -0.4687 
     65 C         -80.3084   27.5475  -74.6528 C.2       1 UNK         0.5165 
     66 O         -79.9913   26.4715  -74.1428 O.2       1 UNK        -0.5079 
     67 H67       -84.6870   26.4729  -77.3058 H         1 UNK         0.0900 
     68 H68       -84.6188   25.7121  -75.7155 H         1 UNK         0.0900 
     69 H69       -83.6460   25.0731  -77.0409 H         1 UNK         0.0900 
     70 H70       -83.3987   26.8704  -74.2667 H         1 UNK         0.2959 
     71 H71       -81.7986   29.0909  -74.8677 H         1 UNK         0.1079 
     72 H72       -83.0059   28.4915  -72.6582 H         1 UNK         0.0837 
     73 H73       -81.6734   27.4417  -72.2858 H         1 UNK         0.0837 
     74 H74       -80.6318   29.8776  -69.8274 H         1 UNK         0.0685 
     75 H75       -80.8307   28.2281  -70.3395 H         1 UNK         0.0685 
     76 H76       -78.9623   27.3960  -72.1130 H         1 UNK         0.1434 
     77 H77       -75.0163   28.5964  -70.9666 H         1 UNK         0.1329 
     78 H78       -78.4404   30.5896  -69.3149 H         1 UNK         0.1335 
     79 H79       -75.0690   29.9249  -68.5701 H         1 UNK         0.0680 
     80 H80       -76.3211   31.1252  -68.4595 H         1 UNK         0.0680 
     81 H81       -73.2806   29.8086  -70.0574 H         1 UNK         0.1032 
     82 H82       -72.4844   31.2693  -69.5535 H         1 UNK         0.1032 
     83 H83       -72.3100   32.0498  -71.8833 H         1 UNK         0.0461 
     84 H84       -71.6984   28.7415  -72.9335 H         1 UNK         0.3453 
     85 H85       -70.0297   28.7259  -72.4057 H         1 UNK         0.3453 
     86 H86       -74.1913   29.9744  -72.5118 H         1 UNK         0.2984 
     87 H87       -75.0274   29.6868  -74.5024 H         1 UNK         0.0554 
     88 H88       -75.4837   30.7032  -76.7495 H         1 UNK         0.0847 
     89 H89       -74.0131   31.6559  -76.6286 H         1 UNK         0.0847 
     90 H90       -75.3393   31.9388  -75.5104 H         1 UNK         0.0847 
     91 H91       -73.5796   29.1301  -76.8397 H         1 UNK         0.3141 
     92 H92       -71.6463   27.6478  -76.9977 H         1 UNK         0.0743 
     93 H93       -71.8605   25.3997  -74.9312 H         1 UNK         0.0784 
     94 H94       -70.8720   25.3530  -76.3895 H         1 UNK         0.0784 
     95 H95       -70.5233   26.5191  -75.1221 H         1 UNK         0.0784 
     96 H96       -73.4912   25.3911  -76.8426 H         1 UNK         0.3213 
     97 H97       -75.9697   26.5888  -78.6322 H         1 UNK         0.0855 
     98 H98       -74.9329   26.9966  -80.7896 H         1 UNK         0.0814 
     99 H99       -75.6862   25.4117  -80.8262 H         1 UNK         0.0814 
    100 H100      -73.9351   25.5619  -80.6636 H         1 UNK         0.0814 
    101 H101      -75.9993   24.6926  -77.5467 H         1 UNK         0.3105 
    102 H102      -75.9648   22.0449  -78.1325 H         1 UNK         0.0547 
    103 H103      -73.8943   20.8490  -78.7204 H         1 UNK         0.0837 
    104 H104      -73.0928   21.4164  -77.2657 H         1 UNK         0.0837 
    105 H105      -74.4569   20.3053  -77.1493 H         1 UNK         0.0837 
    106 H106      -76.3988   22.5539  -76.0320 H         1 UNK         0.3020 
    107 H107      -74.9777   22.7910  -73.2336 H         1 UNK         0.1245 
    108 H108      -74.6596   25.6565  -74.2256 H         1 UNK         0.0781 
    109 H109      -73.5681   24.7609  -73.2142 H         1 UNK         0.0781 
    110 H110      -77.1216   26.5068  -73.2973 H         1 UNK         0.0836 
    111 H111      -75.6821   27.5025  -73.3440 H         1 UNK         0.0836 
    112 H112      -77.0498   24.4244  -74.6351 H         1 UNK         0.3022 
    113 H113      -79.5052   21.9910  -74.0993 H         1 UNK         0.0747 
    114 H114      -80.8353   23.7673  -72.9079 H         1 UNK         0.0793 
    115 H115      -79.7146   22.9461  -71.8320 H         1 UNK         0.0793 
    116 H116      -79.3330   24.5549  -72.4241 H         1 UNK         0.0793 
    117 H117      -79.6432   24.7390  -74.9297 H         1 UNK         0.3047 
    118 H118      -78.3508   24.3143  -78.2013 H         1 UNK         0.0822 
    119 H119      -80.6163   24.9468  -79.0252 H         1 UNK         0.0807 
    120 H120      -81.3339   24.4090  -77.5071 H         1 UNK         0.0807 
    121 H121      -80.5692   23.2478  -78.5824 H         1 UNK         0.0807 
    122 H122      -79.8817   26.4428  -77.1562 H         1 UNK         0.2946 
    123 H123      -77.5143   27.9944  -75.0466 H         1 UNK         0.1144 
    124 H124      -77.7276   29.8720  -76.6568 H         1 UNK         0.0793 
    125 H125      -78.2974   28.7653  -77.9045 H         1 UNK         0.0793 
    126 H126      -76.6554   28.6315  -77.2885 H         1 UNK         0.0793 
    127 H127      -79.8903   29.0875  -75.8960 H         1 UNK         0.2896 
@<TRIPOS>BOND
     1    1    2 1    
     2    1   67 1    
     3    1   68 1    
     4    1   69 1    
     5    2    3 2    
     6    2    4 am   BACKBONE|DICT|INTERRES
     7    4    5 1    
     8    4   70 1    
     9    5    6 1    
    10    5   65 1    
    11    5   71 1    
    12    6    7 1    
    13    6   72 1    
    14    6   73 1    
    15    7    8 1    
    16    8    9 1    
    17    8   74 1    
    18    8   75 1    
    19    9   10 ar   
    20    9   14 ar   
    21   10   11 ar   
    22   10   76 1    
    23   11   12 ar   
    24   11   48 1    
    25   12   13 ar   
    26   12   77 1    
    27   13   14 ar   
    28   13   15 1    
    29   14   78 1    
    30   15   16 1    
    31   15   79 1    
    32   15   80 1    
    33   16   17 1    
    34   17   18 1    
    35   17   81 1    
    36   17   82 1    
    37   18   19 1    
    38   18   22 1    
    39   18   83 1    
    40   19   20 am   BACKBONE|DICT|INTERRES
    41   19   21 2    
    42   20   84 1    
    43   20   85 1    
    44   22   23 am   BACKBONE|DICT|INTERRES
    45   22   86 1    
    46   23   24 2    
    47   23   25 1    
    48   25   26 1    
    49   25   27 1    
    50   25   87 1    
    51   26   88 1    
    52   26   89 1    
    53   26   90 1    
    54   27   28 am   BACKBONE|DICT|INTERRES
    55   27   91 1    
    56   28   29 2    
    57   28   30 1    
    58   30   31 1    
    59   30   32 1    
    60   30   92 1    
    61   31   93 1    
    62   31   94 1    
    63   31   95 1    
    64   32   33 am   BACKBONE|DICT|INTERRES
    65   32   96 1    
    66   33   34 2    
    67   33   35 1    
    68   35   36 1    
    69   35   37 1    
    70   35   97 1    
    71   36   98 1    
    72   36   99 1    
    73   36  100 1    
    74   37   38 am   BACKBONE|DICT|INTERRES
    75   37  101 1    
    76   38   39 2    
    77   38   40 1    
    78   40   41 1    
    79   40   42 1    
    80   40  102 1    
    81   41  103 1    
    82   41  104 1    
    83   41  105 1    
    84   42   43 am   BACKBONE|DICT|INTERRES
    85   42  106 1    
    86   43   44 2    
    87   43   45 1    
    88   45   46 1    
    89   45   49 1    
    90   45  107 1    
    91   46   47 1    
    92   46  108 1    
    93   46  109 1    
    94   47   48 1    
    95   48  110 1    
    96   48  111 1    
    97   49   50 am   BACKBONE|DICT|INTERRES
    98   49  112 1    
    99   50   51 2    
   100   50   52 1    
   101   52   53 1    
   102   52   54 1    
   103   52  113 1    
   104   53  114 1    
   105   53  115 1    
   106   53  116 1    
   107   54   55 am   BACKBONE|DICT|INTERRES
   108   54  117 1    
   109   55   56 2    
   110   55   57 1    
   111   57   58 1    
   112   57   59 1    
   113   57  118 1    
   114   58  119 1    
   115   58  120 1    
   116   58  121 1    
   117   59   60 am   BACKBONE|DICT|INTERRES
   118   59  122 1    
   119   60   61 2    
   120   60   62 1    
   121   62   63 1    
   122   62   64 1    
   123   62  123 1    
   124   63  124 1    
   125   63  125 1    
   126   63  126 1    
   127   64   65 am   BACKBONE|DICT|INTERRES
   128   64  127 1    
   129   65   66 2    
@<TRIPOS>SUBSTRUCTURE
     1 UNK         1 GROUP             0       ****    0 ROOT    
