@<TRIPOS>MOLECULE
3R135
127   129    1
SMALL
USER_CHARGES


@<TRIPOS>ATOM
      1 CA        -83.0199   26.8629  -70.2649 C.3       0 UNK        -0.1998 
      2 C         -82.2771   26.8660  -71.5917 C.2       0 UNK         0.4909 
      3 O         -81.2731   26.1678  -71.7274 O.2       0 UNK        -0.5240 
      4 N         -82.7694   27.6402  -72.5696 N.am      1 UNK        -0.4739 
      5 CA        -82.2359   27.8550  -73.9281 C.3       1 UNK         0.0864 
      6 C6        -80.8015   28.4492  -73.9582 C.3       11 UNK        -0.0881 
      7 S7        -80.7453   30.1480  -73.2935 S.3       11 UNK        -0.2682 
      8 C8        -80.0282   29.9084  -71.6364 C.3       11 UNK         0.0289 
      9 C9        -78.5614   29.5054  -71.6891 C.ar      11 UNK        -0.0687 
     10 C10       -78.1707   28.2100  -71.3360 C.ar      11 UNK        -0.0823 
     11 C11       -76.8197   27.8369  -71.3655 C.ar      11 UNK        -0.0830 
     12 C12       -75.8627   28.7896  -71.7310 C.ar      11 UNK        -0.1021 
     13 C13       -76.2384   30.0919  -72.0714 C.ar      11 UNK        -0.0753 
     14 C14       -77.5910   30.4416  -72.0565 C.ar      11 UNK        -0.0933 
     15 C15       -75.1794   31.1319  -72.4044 C.3       11 UNK         0.0166 
     16 S16       -74.3881   30.8196  -74.0132 S.3       11 UNK        -0.2615 
     17 C17       -73.2662   32.2618  -74.1153 C.3       11 UNK        -0.0865 
     18 CA        -71.7848   31.9536  -73.7687 C.3       10 UNK         0.0862 
     19 C         -71.5805   31.6510  -72.2538 C.2       10 UNK         0.5551 
     20 N         -71.1093   30.4718  -71.8663 N.am      10 UNK        -0.7319 
     21 O         -71.8484   32.5098  -71.4171 O.2       10 UNK        -0.5018 
     22 N         -71.2051   30.9707  -74.6975 N.am      10 UNK        -0.4509 
     23 C         -69.8976   30.7797  -74.9084 C.2       10 UNK         0.4899 
     24 O         -69.0161   31.4403  -74.3564 O.2       10 UNK        -0.4839 
     25 CA        -69.5167   29.6520  -75.8905 C.3       9 UNK         0.0222 
     26 CB        -67.9923   29.4868  -76.0416 C.3       9 UNK        -0.1966 
     27 N         -70.0984   28.3613  -75.5064 N.am      9 UNK        -0.4218 
     28 C         -71.3680   27.9935  -75.7181 C.2       9 UNK         0.5020 
     29 O         -72.2085   28.7255  -76.2462 O.2       9 UNK        -0.5274 
     30 CA        -71.7731   26.6053  -75.1960 C.3       8 UNK         0.0270 
     31 CB        -72.2384   26.7082  -73.7335 C.3       8 UNK        -0.1976 
     32 N         -72.8410   26.0152  -76.0074 N.am      8 UNK        -0.4313 
     33 C         -72.6791   25.5818  -77.2679 C.2       8 UNK         0.5041 
     34 O         -71.5848   25.5481  -77.8345 O.2       8 UNK        -0.5577 
     35 CA        -73.9195   25.0830  -78.0379 C.3       7 UNK         0.0284 
     36 CB        -73.9127   23.5477  -78.1261 C.3       7 UNK        -0.1958 
     37 N         -75.1925   25.5181  -77.4632 N.am      7 UNK        -0.4454 
     38 C         -75.6478   26.7778  -77.4393 C.2       7 UNK         0.5089 
     39 O         -75.1042   27.7112  -78.0290 O.2       7 UNK        -0.5125 
     40 CA        -76.9148   27.0500  -76.6039 C.3       6 UNK         0.0408 
     41 CB        -78.1350   27.2304  -77.5201 C.3       6 UNK        -0.1791 
     42 N         -77.2206   26.0176  -75.6072 N.am      6 UNK        -0.4762 
     43 C         -76.4405   25.6592  -74.5759 C.2       6 UNK         0.5007 
     44 O         -75.3270   26.1353  -74.3632 O.2       6 UNK        -0.5032 
     45 CA        -76.9767   24.5322  -73.6761 C.3       5 UNK         0.0783 
     46 C46       -78.0985   25.0414  -72.7281 C.3       11 UNK        -0.0857 
     47 S47       -77.5862   25.1087  -70.9798 S.3       11 UNK        -0.2512 
     48 C48       -76.3329   26.4406  -70.9726 C.3       11 UNK         0.0225 
     49 N         -77.4253   23.4160  -74.5095 N.am      5 UNK        -0.4615 
     50 C         -76.6228   22.4652  -75.0055 C.2       4 UNK         0.5053 
     51 O         -75.4208   22.3875  -74.7544 O.2       4 UNK        -0.5105 
     52 CA        -77.2599   21.4234  -75.9438 C.3       4 UNK         0.0263 
     53 CB        -77.6359   20.1562  -75.1592 C.3       4 UNK        -0.1981 
     54 N         -78.4436   21.9220  -76.6491 N.am      4 UNK        -0.4224 
     55 C         -78.4172   22.8549  -77.6112 C.2       3 UNK         0.4895 
     56 O         -77.3847   23.3647  -78.0439 O.2       3 UNK        -0.5091 
     57 CA        -79.7781   23.3349  -78.1467 C.3       3 UNK         0.0250 
     58 CB        -80.2534   22.4305  -79.2949 C.3       3 UNK        -0.1996 
     59 N         -80.8314   23.4292  -77.1259 N.am      3 UNK        -0.4254 
     60 C         -80.7554   24.1705  -76.0117 C.2       2 UNK         0.5004 
     61 O         -79.7478   24.7956  -75.6735 O.2       2 UNK        -0.5226 
     62 CA        -81.9863   24.1735  -75.0924 C.3       2 UNK         0.0269 
     63 CB        -81.9172   22.9974  -74.1050 C.3       2 UNK        -0.1926 
     64 N         -82.0692   25.4220  -74.3330 N.am      2 UNK        -0.4687 
     65 C         -82.3433   26.6234  -74.8547 C.2       1 UNK         0.5165 
     66 O         -82.6865   26.7860  -76.0272 O.2       1 UNK        -0.5079 
     67 H67       -83.8822   27.5292  -70.2772 H         1 UNK         0.0900 
     68 H68       -83.3700   25.8572  -70.0343 H         1 UNK         0.0900 
     69 H69       -82.3544   27.1841  -69.4641 H         1 UNK         0.0900 
     70 H70       -83.6156   28.1589  -72.3785 H         1 UNK         0.2959 
     71 H71       -82.8989   28.5983  -74.3749 H         1 UNK         0.1079 
     72 H72       -80.4331   28.5053  -74.9845 H         1 UNK         0.0837 
     73 H73       -80.0961   27.8080  -73.4301 H         1 UNK         0.0837 
     74 H74       -80.1185   30.8429  -71.0810 H         1 UNK         0.0685 
     75 H75       -80.6155   29.1744  -71.0851 H         1 UNK         0.0685 
     76 H76       -78.9274   27.4981  -71.0367 H         1 UNK         0.1434 
     77 H77       -74.8144   28.5222  -71.7432 H         1 UNK         0.1329 
     78 H78       -77.8924   31.4473  -72.3162 H         1 UNK         0.1335 
     79 H79       -74.4225   31.1304  -71.6193 H         1 UNK         0.0680 
     80 H80       -75.6170   32.1315  -72.4090 H         1 UNK         0.0680 
     81 H81       -73.3209   32.6462  -75.1349 H         1 UNK         0.1032 
     82 H82       -73.6435   33.0723  -73.4888 H         1 UNK         0.1032 
     83 H83       -71.2374   32.8830  -73.9385 H         1 UNK         0.0461 
     84 H84       -70.8809   29.7689  -72.5491 H         1 UNK         0.3453 
     85 H85       -70.9754   30.2902  -70.8844 H         1 UNK         0.3453 
     86 H86       -71.8602   30.3588  -75.1764 H         1 UNK         0.2984 
     87 H87       -69.9128   29.9354  -76.8681 H         1 UNK         0.0554 
     88 H88       -67.5293   30.4162  -76.3765 H         1 UNK         0.0847 
     89 H89       -67.7463   28.7232  -76.7798 H         1 UNK         0.0847 
     90 H90       -67.5190   29.2084  -75.0991 H         1 UNK         0.0847 
     91 H91       -69.4827   27.7180  -75.0289 H         1 UNK         0.3141 
     92 H92       -70.9071   25.9415  -75.2423 H         1 UNK         0.0743 
     93 H93       -73.0663   27.4109  -73.6240 H         1 UNK         0.0784 
     94 H94       -72.5677   25.7419  -73.3507 H         1 UNK         0.0784 
     95 H95       -71.4313   27.0551  -73.0873 H         1 UNK         0.0784 
     96 H96       -73.7753   26.0455  -75.6090 H         1 UNK         0.3213 
     97 H97       -73.8545   25.4858  -79.0509 H         1 UNK         0.0855 
     98 H98       -74.0062   23.0872  -77.1417 H         1 UNK         0.0814 
     99 H99       -72.9845   23.1847  -78.5696 H         1 UNK         0.0814 
    100 H100      -74.7303   23.1816  -78.7472 H         1 UNK         0.0814 
    101 H101      -75.7589   24.8077  -77.0193 H         1 UNK         0.3105 
    102 H102      -76.7505   27.9837  -76.0619 H         1 UNK         0.0547 
    103 H103      -77.9730   28.0406  -78.2323 H         1 UNK         0.0837 
    104 H104      -78.3388   26.3266  -78.0944 H         1 UNK         0.0837 
    105 H105      -79.0311   27.4739  -76.9490 H         1 UNK         0.0837 
    106 H106      -78.1303   25.5643  -75.6948 H         1 UNK         0.3020 
    107 H107      -76.1349   24.1793  -73.0753 H         1 UNK         0.1245 
    108 H108      -78.9623   24.3758  -72.7637 H         1 UNK         0.0781 
    109 H109      -78.4963   26.0127  -73.0262 H         1 UNK         0.0781 
    110 H110      -75.5065   26.1446  -71.6200 H         1 UNK         0.0836 
    111 H111      -75.9172   26.5017  -69.9661 H         1 UNK         0.0836 
    112 H112      -78.3843   23.4641  -74.8296 H         1 UNK         0.3022 
    113 H113      -76.5095   21.1542  -76.6906 H         1 UNK         0.0747 
    114 H114      -78.0166   19.3776  -75.8207 H         1 UNK         0.0793 
    115 H115      -76.7667   19.7443  -74.6442 H         1 UNK         0.0793 
    116 H116      -78.3964   20.3586  -74.4037 H         1 UNK         0.0793 
    117 H117      -79.3390   21.5563  -76.3596 H         1 UNK         0.3047 
    118 H118      -79.6295   24.3389  -78.5484 H         1 UNK         0.0822 
    119 H119      -81.1577   22.8221  -79.7612 H         1 UNK         0.0807 
    120 H120      -80.4633   21.4164  -78.9523 H         1 UNK         0.0807 
    121 H121      -79.4945   22.3601  -80.0757 H         1 UNK         0.0807 
    122 H122      -81.6879   22.9296  -77.3192 H         1 UNK         0.2946 
    123 H123      -82.8863   24.0801  -75.7044 H         1 UNK         0.1144 
    124 H124      -82.7929   22.9747  -73.4560 H         1 UNK         0.0793 
    125 H125      -81.0329   23.0554  -73.4690 H         1 UNK         0.0793 
    126 H126      -81.8809   22.0422  -74.6304 H         1 UNK         0.0793 
    127 H127      -81.7422   25.4071  -73.3702 H         1 UNK         0.2896 
@<TRIPOS>BOND
     1    1    2 1    
     2    1   67 1    
     3    1   68 1    
     4    1   69 1    
     5    2    3 2    
     6    2    4 am   BACKBONE|DICT|INTERRES
     7    4    5 1    
     8    4   70 1    
     9    5    6 1    
    10    5   65 1    
    11    5   71 1    
    12    6    7 1    
    13    6   72 1    
    14    6   73 1    
    15    7    8 1    
    16    8    9 1    
    17    8   74 1    
    18    8   75 1    
    19    9   10 ar   
    20    9   14 ar   
    21   10   11 ar   
    22   10   76 1    
    23   11   12 ar   
    24   11   48 1    
    25   12   13 ar   
    26   12   77 1    
    27   13   14 ar   
    28   13   15 1    
    29   14   78 1    
    30   15   16 1    
    31   15   79 1    
    32   15   80 1    
    33   16   17 1    
    34   17   18 1    
    35   17   81 1    
    36   17   82 1    
    37   18   19 1    
    38   18   22 1    
    39   18   83 1    
    40   19   20 am   BACKBONE|DICT|INTERRES
    41   19   21 2    
    42   20   84 1    
    43   20   85 1    
    44   22   23 am   BACKBONE|DICT|INTERRES
    45   22   86 1    
    46   23   24 2    
    47   23   25 1    
    48   25   26 1    
    49   25   27 1    
    50   25   87 1    
    51   26   88 1    
    52   26   89 1    
    53   26   90 1    
    54   27   28 am   BACKBONE|DICT|INTERRES
    55   27   91 1    
    56   28   29 2    
    57   28   30 1    
    58   30   31 1    
    59   30   32 1    
    60   30   92 1    
    61   31   93 1    
    62   31   94 1    
    63   31   95 1    
    64   32   33 am   BACKBONE|DICT|INTERRES
    65   32   96 1    
    66   33   34 2    
    67   33   35 1    
    68   35   36 1    
    69   35   37 1    
    70   35   97 1    
    71   36   98 1    
    72   36   99 1    
    73   36  100 1    
    74   37   38 am   BACKBONE|DICT|INTERRES
    75   37  101 1    
    76   38   39 2    
    77   38   40 1    
    78   40   41 1    
    79   40   42 1    
    80   40  102 1    
    81   41  103 1    
    82   41  104 1    
    83   41  105 1    
    84   42   43 am   BACKBONE|DICT|INTERRES
    85   42  106 1    
    86   43   44 2    
    87   43   45 1    
    88   45   46 1    
    89   45   49 1    
    90   45  107 1    
    91   46   47 1    
    92   46  108 1    
    93   46  109 1    
    94   47   48 1    
    95   48  110 1    
    96   48  111 1    
    97   49   50 am   BACKBONE|DICT|INTERRES
    98   49  112 1    
    99   50   51 2    
   100   50   52 1    
   101   52   53 1    
   102   52   54 1    
   103   52  113 1    
   104   53  114 1    
   105   53  115 1    
   106   53  116 1    
   107   54   55 am   BACKBONE|DICT|INTERRES
   108   54  117 1    
   109   55   56 2    
   110   55   57 1    
   111   57   58 1    
   112   57   59 1    
   113   57  118 1    
   114   58  119 1    
   115   58  120 1    
   116   58  121 1    
   117   59   60 am   BACKBONE|DICT|INTERRES
   118   59  122 1    
   119   60   61 2    
   120   60   62 1    
   121   62   63 1    
   122   62   64 1    
   123   62  123 1    
   124   63  124 1    
   125   63  125 1    
   126   63  126 1    
   127   64   65 am   BACKBONE|DICT|INTERRES
   128   64  127 1    
   129   65   66 2    
@<TRIPOS>SUBSTRUCTURE
     1 UNK         1 GROUP             0       ****    0 ROOT    
