@<TRIPOS>MOLECULE
3R135
127   129    1
SMALL
USER_CHARGES


@<TRIPOS>ATOM
      1 CA        -84.0758   30.7824  -74.2233 C.3       0 UNK        -0.1998 
      2 C         -82.9326   29.7828  -74.1323 C.2       0 UNK         0.4909 
      3 O         -82.1024   29.7169  -75.0393 O.2       0 UNK        -0.5240 
      4 N         -82.8776   29.0119  -73.0396 N.am      1 UNK        -0.4739 
      5 CA        -81.8765   27.9670  -72.8024 C.3       1 UNK         0.0864 
      6 C6        -81.8794   27.4938  -71.3241 C.3       11 UNK        -0.0881 
      7 S7        -81.7632   28.7894  -70.0325 S.3       11 UNK        -0.2682 
      8 C8        -80.5639   30.0148  -70.6736 C.3       11 UNK         0.0289 
      9 C9        -79.1094   29.5535  -70.7956 C.ar      11 UNK        -0.0687 
     10 C10       -78.6566   28.3077  -70.3348 C.ar      11 UNK        -0.0823 
     11 C11       -77.3270   27.9210  -70.5197 C.ar      11 UNK        -0.0830 
     12 C12       -76.4261   28.8149  -71.1006 C.ar      11 UNK        -0.1021 
     13 C13       -76.8614   30.0465  -71.5849 C.ar      11 UNK        -0.0753 
     14 C14       -78.1994   30.4153  -71.4208 C.ar      11 UNK        -0.0933 
     15 C15       -75.8920   30.9266  -72.3552 C.3       11 UNK         0.0166 
     16 S16       -75.9130   30.4677  -74.1163 S.3       11 UNK        -0.2615 
     17 C17       -74.3739   31.2351  -74.7255 C.3       11 UNK        -0.0865 
     18 CA        -73.4065   30.1908  -75.3571 C.3       10 UNK         0.0862 
     19 C         -72.2286   30.8486  -76.1427 C.2       10 UNK         0.5551 
     20 N         -71.0573   30.2286  -76.2312 N.am      10 UNK        -0.7319 
     21 O         -72.3825   31.9287  -76.7083 O.2       10 UNK        -0.5018 
     22 N         -73.0018   29.1250  -74.4224 N.am      10 UNK        -0.4509 
     23 C         -72.2166   29.2740  -73.3477 C.2       10 UNK         0.4899 
     24 O         -71.8384   30.3632  -72.9155 O.2       10 UNK        -0.4839 
     25 CA        -71.7313   27.9897  -72.6467 C.3       9 UNK         0.0222 
     26 CB        -72.6335   27.6518  -71.4497 C.3       9 UNK        -0.1966 
     27 N         -71.6328   26.8057  -73.5083 N.am      9 UNK        -0.4218 
     28 C         -70.9302   26.6891  -74.6437 C.2       9 UNK         0.5020 
     29 O         -70.2665   27.6002  -75.1405 O.2       9 UNK        -0.5274 
     30 CA        -70.9847   25.3284  -75.3503 C.3       8 UNK         0.0270 
     31 CB        -71.2101   24.1410  -74.3913 C.3       8 UNK        -0.1976 
     32 N         -72.0499   25.3435  -76.3516 N.am      8 UNK        -0.4313 
     33 C         -71.8960   25.0146  -77.6411 C.2       8 UNK         0.5041 
     34 O         -70.8102   24.7097  -78.1385 O.2       8 UNK        -0.5577 
     35 CA        -73.1472   24.9770  -78.5426 C.3       7 UNK         0.0284 
     36 CB        -73.4775   23.5258  -78.9316 C.3       7 UNK        -0.1958 
     37 N         -74.3419   25.5822  -77.9516 N.am      7 UNK        -0.4454 
     38 C         -74.5489   26.8972  -77.8089 C.2       7 UNK         0.5089 
     39 O         -73.7605   27.7627  -78.1880 O.2       7 UNK        -0.5125 
     40 CA        -75.8425   27.3140  -77.0855 C.3       6 UNK         0.0408 
     41 CB        -77.0058   27.4157  -78.0824 C.3       6 UNK        -0.1791 
     42 N         -76.2196   26.4294  -75.9771 N.am      6 UNK        -0.4762 
     43 C         -75.4464   26.1455  -74.9178 C.2       6 UNK         0.5007 
     44 O         -74.2898   26.5457  -74.7901 O.2       6 UNK        -0.5032 
     45 CA        -76.0582   25.2482  -73.8272 C.3       5 UNK         0.0783 
     46 C46       -77.1151   26.0340  -73.0196 C.3       11 UNK        -0.0857 
     47 S47       -77.5169   25.2835  -71.4021 S.3       11 UNK        -0.2512 
     48 C48       -76.8773   26.5028  -70.1933 C.3       11 UNK         0.0225 
     49 N         -76.6051   24.0332  -74.4286 N.am      5 UNK        -0.4615 
     50 C         -75.8620   23.0283  -74.9103 C.2       4 UNK         0.5053 
     51 O         -74.6404   22.9561  -74.7821 O.2       4 UNK        -0.5105 
     52 CA        -76.6047   21.9316  -75.6933 C.3       4 UNK         0.0263 
     53 CB        -77.0717   20.8159  -74.7450 C.3       4 UNK        -0.1981 
     54 N         -77.7531   22.4420  -76.4489 N.am      4 UNK        -0.4224 
     55 C         -77.6716   23.3038  -77.4740 C.2       3 UNK         0.4895 
     56 O         -76.6115   23.7362  -77.9252 O.2       3 UNK        -0.5091 
     57 CA        -79.0024   23.8048  -78.0628 C.3       3 UNK         0.0250 
     58 CB        -79.5166   22.8332  -79.1368 C.3       3 UNK        -0.1996 
     59 N         -80.0445   24.0209  -77.0516 N.am      3 UNK        -0.4254 
     60 C         -79.9538   24.8958  -76.0402 C.2       2 UNK         0.5004 
     61 O         -78.9746   25.6202  -75.8465 O.2       2 UNK        -0.5226 
     62 CA        -81.1232   24.9201  -75.0514 C.3       2 UNK         0.0269 
     63 CB        -81.0742   23.6915  -74.1228 C.3       2 UNK        -0.1926 
     64 N         -81.0661   26.1366  -74.2403 N.am      2 UNK        -0.4687 
     65 C         -82.1342   26.7569  -73.7272 C.2       1 UNK         0.5165 
     66 O         -83.2936   26.3761  -73.9146 O.2       1 UNK        -0.5079 
     67 H67       -83.6828   31.7950  -74.3095 H         1 UNK         0.0900 
     68 H68       -84.6846   30.5764  -75.1033 H         1 UNK         0.0900 
     69 H69       -84.7223   30.7432  -73.3467 H         1 UNK         0.0900 
     70 H70       -83.5930   29.0948  -72.3315 H         1 UNK         0.2959 
     71 H71       -80.8920   28.3763  -73.0400 H         1 UNK         0.1079 
     72 H72       -81.0661   26.7839  -71.1642 H         1 UNK         0.0837 
     73 H73       -82.7941   26.9352  -71.1131 H         1 UNK         0.0837 
     74 H74       -80.5840   30.8716  -69.9989 H         1 UNK         0.0685 
     75 H75       -80.9104   30.3885  -71.6373 H         1 UNK         0.0685 
     76 H76       -79.3336   27.6085  -69.8676 H         1 UNK         0.1434 
     77 H77       -75.4004   28.5195  -71.2597 H         1 UNK         0.1329 
     78 H78       -78.5390   31.3670  -71.8068 H         1 UNK         0.1335 
     79 H79       -74.8839   30.8079  -71.9539 H         1 UNK         0.0680 
     80 H80       -76.1543   31.9799  -72.2458 H         1 UNK         0.0680 
     81 H81       -73.8773   31.7872  -73.9265 H         1 UNK         0.1032 
     82 H82       -74.6661   31.9824  -75.4652 H         1 UNK         0.1032 
     83 H83       -73.9673   29.6770  -76.1355 H         1 UNK         0.0461 
     84 H84       -70.3108   30.6613  -76.7505 H         1 UNK         0.3453 
     85 H85       -70.9054   29.3273  -75.7883 H         1 UNK         0.3453 
     86 H86       -73.3051   28.1864  -74.6652 H         1 UNK         0.2984 
     87 H87       -70.7280   28.1960  -72.2692 H         1 UNK         0.0554 
     88 H88       -72.8075   28.5278  -70.8228 H         1 UNK         0.0847 
     89 H89       -72.1808   26.8886  -70.8165 H         1 UNK         0.0847 
     90 H90       -73.6036   27.2788  -71.7781 H         1 UNK         0.0847 
     91 H91       -72.1756   26.0048  -73.2213 H         1 UNK         0.3141 
     92 H92       -70.0101   25.1926  -75.8237 H         1 UNK         0.0743 
     93 H93       -70.4845   24.1459  -73.5766 H         1 UNK         0.0784 
     94 H94       -72.2091   24.1448  -73.9533 H         1 UNK         0.0784 
     95 H95       -71.0936   23.1932  -74.9174 H         1 UNK         0.0784 
     96 H96       -72.9630   25.6440  -76.0244 H         1 UNK         0.3213 
     97 H97       -72.9027   25.5271  -79.4538 H         1 UNK         0.0855 
     98 H98       -73.7473   22.9288  -78.0591 H         1 UNK         0.0814 
     99 H99       -72.6249   23.0412  -79.4095 H         1 UNK         0.0814 
    100 H100      -74.3090   23.4831  -79.6354 H         1 UNK         0.0814 
    101 H101      -75.0844   24.9460  -77.6713 H         1 UNK         0.3105 
    102 H102      -75.6853   28.3043  -76.6576 H         1 UNK         0.0547 
    103 H103      -76.7857   28.1449  -78.8631 H         1 UNK         0.0837 
    104 H104      -77.9263   27.7327  -77.5917 H         1 UNK         0.0837 
    105 H105      -77.1965   26.4623  -78.5739 H         1 UNK         0.0837 
    106 H106      -77.1720   26.0688  -75.9908 H         1 UNK         0.3020 
    107 H107      -75.2460   24.9679  -73.1522 H         1 UNK         0.1245 
    108 H108      -78.0457   26.1253  -73.5759 H         1 UNK         0.0781 
    109 H109      -76.7785   27.0573  -72.8857 H         1 UNK         0.0781 
    110 H110      -75.7882   26.4392  -70.1691 H         1 UNK         0.0836 
    111 H111      -77.2212   26.2303  -69.1945 H         1 UNK         0.0836 
    112 H112      -77.5981   24.0316  -74.6063 H         1 UNK         0.3022 
    113 H113      -75.8985   21.5032  -76.4080 H         1 UNK         0.0747 
    114 H114      -77.5277   19.9923  -75.2947 H         1 UNK         0.0793 
    115 H115      -76.2306   20.4032  -74.1859 H         1 UNK         0.0793 
    116 H116      -77.7989   21.1798  -74.0178 H         1 UNK         0.0793 
    117 H117      -78.6681   22.1348  -76.1536 H         1 UNK         0.3047 
    118 H118      -78.8084   24.7653  -78.5427 H         1 UNK         0.0822 
    119 H119      -80.4067   23.2228  -79.6313 H         1 UNK         0.0807 
    120 H120      -79.7645   21.8573  -78.7174 H         1 UNK         0.0807 
    121 H121      -78.7634   22.6737  -79.9100 H         1 UNK         0.0807 
    122 H122      -80.8798   23.4591  -77.1379 H         1 UNK         0.2946 
    123 H123      -82.0493   24.9074  -75.6314 H         1 UNK         0.1144 
    124 H124      -80.1590   23.6720  -73.5291 H         1 UNK         0.0793 
    125 H125      -81.1189   22.7606  -74.6891 H         1 UNK         0.0793 
    126 H126      -81.9175   23.6845  -73.4319 H         1 UNK         0.0793 
    127 H127      -80.1394   26.5265  -74.1274 H         1 UNK         0.2896 
@<TRIPOS>BOND
     1    1    2 1    
     2    1   67 1    
     3    1   68 1    
     4    1   69 1    
     5    2    3 2    
     6    2    4 am   BACKBONE|DICT|INTERRES
     7    4    5 1    
     8    4   70 1    
     9    5    6 1    
    10    5   65 1    
    11    5   71 1    
    12    6    7 1    
    13    6   72 1    
    14    6   73 1    
    15    7    8 1    
    16    8    9 1    
    17    8   74 1    
    18    8   75 1    
    19    9   10 ar   
    20    9   14 ar   
    21   10   11 ar   
    22   10   76 1    
    23   11   12 ar   
    24   11   48 1    
    25   12   13 ar   
    26   12   77 1    
    27   13   14 ar   
    28   13   15 1    
    29   14   78 1    
    30   15   16 1    
    31   15   79 1    
    32   15   80 1    
    33   16   17 1    
    34   17   18 1    
    35   17   81 1    
    36   17   82 1    
    37   18   19 1    
    38   18   22 1    
    39   18   83 1    
    40   19   20 am   BACKBONE|DICT|INTERRES
    41   19   21 2    
    42   20   84 1    
    43   20   85 1    
    44   22   23 am   BACKBONE|DICT|INTERRES
    45   22   86 1    
    46   23   24 2    
    47   23   25 1    
    48   25   26 1    
    49   25   27 1    
    50   25   87 1    
    51   26   88 1    
    52   26   89 1    
    53   26   90 1    
    54   27   28 am   BACKBONE|DICT|INTERRES
    55   27   91 1    
    56   28   29 2    
    57   28   30 1    
    58   30   31 1    
    59   30   32 1    
    60   30   92 1    
    61   31   93 1    
    62   31   94 1    
    63   31   95 1    
    64   32   33 am   BACKBONE|DICT|INTERRES
    65   32   96 1    
    66   33   34 2    
    67   33   35 1    
    68   35   36 1    
    69   35   37 1    
    70   35   97 1    
    71   36   98 1    
    72   36   99 1    
    73   36  100 1    
    74   37   38 am   BACKBONE|DICT|INTERRES
    75   37  101 1    
    76   38   39 2    
    77   38   40 1    
    78   40   41 1    
    79   40   42 1    
    80   40  102 1    
    81   41  103 1    
    82   41  104 1    
    83   41  105 1    
    84   42   43 am   BACKBONE|DICT|INTERRES
    85   42  106 1    
    86   43   44 2    
    87   43   45 1    
    88   45   46 1    
    89   45   49 1    
    90   45  107 1    
    91   46   47 1    
    92   46  108 1    
    93   46  109 1    
    94   47   48 1    
    95   48  110 1    
    96   48  111 1    
    97   49   50 am   BACKBONE|DICT|INTERRES
    98   49  112 1    
    99   50   51 2    
   100   50   52 1    
   101   52   53 1    
   102   52   54 1    
   103   52  113 1    
   104   53  114 1    
   105   53  115 1    
   106   53  116 1    
   107   54   55 am   BACKBONE|DICT|INTERRES
   108   54  117 1    
   109   55   56 2    
   110   55   57 1    
   111   57   58 1    
   112   57   59 1    
   113   57  118 1    
   114   58  119 1    
   115   58  120 1    
   116   58  121 1    
   117   59   60 am   BACKBONE|DICT|INTERRES
   118   59  122 1    
   119   60   61 2    
   120   60   62 1    
   121   62   63 1    
   122   62   64 1    
   123   62  123 1    
   124   63  124 1    
   125   63  125 1    
   126   63  126 1    
   127   64   65 am   BACKBONE|DICT|INTERRES
   128   64  127 1    
   129   65   66 2    
@<TRIPOS>SUBSTRUCTURE
     1 UNK         1 GROUP             0       ****    0 ROOT    
