@<TRIPOS>MOLECULE
3R135
127   129    1
SMALL
USER_CHARGES


@<TRIPOS>ATOM
      1 CA        -85.8591   26.9333  -75.3199 C.3       0 UNK        -0.1998 
      2 C         -84.4065   27.3852  -75.3092 C.2       0 UNK         0.4909 
      3 O         -83.7847   27.4721  -76.3679 O.2       0 UNK        -0.5240 
      4 N         -83.8578   27.6649  -74.1190 N.am      1 UNK        -0.4739 
      5 CA        -82.4734   28.1222  -73.9186 C.3       1 UNK         0.0864 
      6 C6        -82.3462   28.9977  -72.6372 C.3       11 UNK        -0.0881 
      7 S7        -81.3868   30.5230  -72.9318 S.3       11 UNK        -0.2682 
      8 C8        -80.3088   30.6065  -71.4650 C.3       11 UNK         0.0289 
      9 C9        -79.0107   29.8300  -71.6446 C.ar      11 UNK        -0.0687 
     10 C10       -78.7859   28.6414  -70.9417 C.ar      11 UNK        -0.0823 
     11 C11       -77.5702   27.9573  -71.0607 C.ar      11 UNK        -0.0830 
     12 C12       -76.5795   28.4776  -71.9027 C.ar      11 UNK        -0.1021 
     13 C13       -76.7903   29.6612  -72.6126 C.ar      11 UNK        -0.0753 
     14 C14       -78.0081   30.3332  -72.4793 C.ar      11 UNK        -0.0933 
     15 C15       -75.7040   30.2150  -73.5223 C.3       11 UNK         0.0166 
     16 S16       -74.6448   31.4141  -72.6545 S.3       11 UNK        -0.2615 
     17 C17       -73.4600   30.3220  -71.7896 C.3       11 UNK        -0.0865 
     18 CA        -72.0579   30.3257  -72.4543 C.3       10 UNK         0.0862 
     19 C         -71.0074   29.5544  -71.6002 C.2       10 UNK         0.5551 
     20 N         -70.2263   28.6352  -72.1569 N.am      10 UNK        -0.7319 
     21 O         -70.8886   29.8048  -70.4033 O.2       10 UNK        -0.5018 
     22 N         -72.1240   29.8806  -73.8550 N.am      10 UNK        -0.4509 
     23 C         -71.3493   30.3437  -74.8418 C.2       10 UNK         0.4899 
     24 O         -70.5208   31.2449  -74.7003 O.2       10 UNK        -0.4839 
     25 CA        -71.5347   29.6716  -76.2161 C.3       9 UNK         0.0222 
     26 CB        -70.3829   29.9824  -77.1952 C.3       9 UNK        -0.1966 
     27 N         -71.7599   28.2219  -76.1341 N.am      9 UNK        -0.4218 
     28 C         -70.9486   27.3018  -75.5826 C.2       9 UNK         0.5020 
     29 O         -69.9110   27.5851  -74.9820 O.2       9 UNK        -0.5274 
     30 CA        -71.3491   25.8165  -75.6945 C.3       8 UNK         0.0270 
     31 CB        -71.5319   25.1866  -74.3024 C.3       8 UNK        -0.1976 
     32 N         -72.5592   25.6030  -76.4931 N.am      8 UNK        -0.4313 
     33 C         -72.5915   25.6007  -77.8339 C.2       8 UNK         0.5041 
     34 O         -71.5844   25.6909  -78.5369 O.2       8 UNK        -0.5577 
     35 CA        -73.9690   25.5143  -78.5184 C.3       7 UNK         0.0284 
     36 CB        -74.2246   24.0829  -79.0162 C.3       7 UNK        -0.1958 
     37 N         -75.0930   25.9495  -77.6808 N.am      7 UNK        -0.4454 
     38 C         -75.2563   27.1854  -77.1847 C.2       7 UNK         0.5089 
     39 O         -74.4742   28.1135  -77.3921 O.2       7 UNK        -0.5125 
     40 CA        -76.4450   27.3979  -76.2312 C.3       6 UNK         0.0408 
     41 CB        -77.7581   27.5785  -77.0066 C.3       6 UNK        -0.1791 
     42 N         -76.5878   26.3061  -75.2666 N.am      6 UNK        -0.4762 
     43 C         -75.6659   25.9493  -74.3600 C.2       6 UNK         0.5007 
     44 O         -74.6026   26.5484  -74.1994 O.2       6 UNK        -0.5032 
     45 CA        -75.9552   24.6686  -73.5536 C.3       5 UNK         0.0783 
     46 C46       -76.9241   24.9238  -72.3724 C.3       11 UNK        -0.0857 
     47 S47       -76.0855   25.5375  -70.8792 S.3       11 UNK        -0.2512 
     48 C48       -77.3474   26.6910  -70.2306 C.3       11 UNK         0.0225 
     49 N         -76.4841   23.6311  -74.4390 N.am      5 UNK        -0.4615 
     50 C         -75.7596   22.8726  -75.2685 C.2       4 UNK         0.5053 
     51 O         -74.5318   22.9184  -75.3366 O.2       4 UNK        -0.5105 
     52 CA        -76.5346   21.9008  -76.1801 C.3       4 UNK         0.0263 
     53 CB        -76.6278   20.5141  -75.5240 C.3       4 UNK        -0.1981 
     54 N         -77.8846   22.3647  -76.5240 N.am      4 UNK        -0.4224 
     55 C         -78.1392   23.4038  -77.3318 C.2       3 UNK         0.4895 
     56 O         -77.2620   24.0645  -77.8859 O.2       3 UNK        -0.5091 
     57 CA        -79.6141   23.8126  -77.5185 C.3       3 UNK         0.0250 
     58 CB        -80.2833   22.9285  -78.5831 C.3       3 UNK        -0.1996 
     59 N         -80.4409   23.8267  -76.3003 N.am      3 UNK        -0.4254 
     60 C         -80.1047   24.3874  -75.1292 C.2       2 UNK         0.5004 
     61 O         -78.9896   24.8484  -74.8975 O.2       2 UNK        -0.5226 
     62 CA        -81.1863   24.4402  -74.0351 C.3       2 UNK         0.0269 
     63 CB        -80.6000   24.1575  -72.6366 C.3       2 UNK        -0.1926 
     64 N         -81.9248   25.7117  -74.0291 N.am      2 UNK        -0.4687 
     65 C         -81.4451   26.9663  -73.9299 C.2       1 UNK         0.5165 
     66 O         -80.2527   27.2447  -73.8263 O.2       1 UNK        -0.5079 
     67 H67       -86.2823   26.8940  -74.3163 H         1 UNK         0.0900 
     68 H68       -85.9406   25.9405  -75.7616 H         1 UNK         0.0900 
     69 H69       -86.4606   27.6207  -75.9141 H         1 UNK         0.0900 
     70 H70       -84.4138   27.5651  -73.2807 H         1 UNK         0.2959 
     71 H71       -82.2171   28.7404  -74.7824 H         1 UNK         0.1079 
     72 H72       -83.3290   29.3220  -72.2911 H         1 UNK         0.0837 
     73 H73       -81.9202   28.4378  -71.8018 H         1 UNK         0.0837 
     74 H74       -80.0656   31.6533  -71.2773 H         1 UNK         0.0685 
     75 H75       -80.8543   30.2648  -70.5840 H         1 UNK         0.0685 
     76 H76       -79.5549   28.2562  -70.2862 H         1 UNK         0.1434 
     77 H77       -75.6344   27.9666  -72.0084 H         1 UNK         0.1329 
     78 H78       -78.1742   31.2555  -73.0191 H         1 UNK         0.1335 
     79 H79       -76.1617   30.7076  -74.3814 H         1 UNK         0.0680 
     80 H80       -75.0915   29.4077  -73.9262 H         1 UNK         0.0680 
     81 H81       -73.8470   29.3056  -71.7295 H         1 UNK         0.1032 
     82 H82       -73.3936   30.6751  -70.7588 H         1 UNK         0.1032 
     83 H83       -71.7157   31.3623  -72.4462 H         1 UNK         0.0461 
     84 H84       -69.5518   28.1559  -71.5825 H         1 UNK         0.3453 
     85 H85       -70.2703   28.4342  -73.1493 H         1 UNK         0.3453 
     86 H86       -72.7545   29.1177  -74.0531 H         1 UNK         0.2984 
     87 H87       -72.4476   30.0948  -76.6375 H         1 UNK         0.0554 
     88 H88       -70.5519   29.5175  -78.1665 H         1 UNK         0.0847 
     89 H89       -69.4237   29.6280  -76.8161 H         1 UNK         0.0847 
     90 H90       -70.2896   31.0560  -77.3637 H         1 UNK         0.0847 
     91 H91       -72.6187   27.9028  -76.5722 H         1 UNK         0.3141 
     92 H92       -70.5208   25.2992  -76.1833 H         1 UNK         0.0743 
     93 H93       -72.2438   25.7407  -73.6920 H         1 UNK         0.0784 
     94 H94       -71.8775   24.1547  -74.3718 H         1 UNK         0.0784 
     95 H95       -70.5873   25.1755  -73.7570 H         1 UNK         0.0784 
     96 H96       -73.4311   25.5357  -75.9836 H         1 UNK         0.3213 
     97 H97       -73.9362   26.1758  -79.3866 H         1 UNK         0.0855 
     98 H98       -74.3088   23.3791  -78.1877 H         1 UNK         0.0814 
     99 H99       -73.4107   23.7385  -79.6557 H         1 UNK         0.0814 
    100 H100      -75.1412   24.0237  -79.6032 H         1 UNK         0.0814 
    101 H101      -75.8233   25.2609  -77.5125 H         1 UNK         0.3105 
    102 H102      -76.2620   28.3126  -75.6669 H         1 UNK         0.0547 
    103 H103      -77.6950   28.4287  -77.6866 H         1 UNK         0.0837 
    104 H104      -78.0003   26.6997  -77.6038 H         1 UNK         0.0837 
    105 H105      -78.5933   27.7630  -76.3298 H         1 UNK         0.0837 
    106 H106      -77.4633   25.7842  -75.2827 H         1 UNK         0.3020 
    107 H107      -75.0032   24.3095  -73.1550 H         1 UNK         0.1245 
    108 H108      -77.7233   25.6088  -72.6627 H         1 UNK         0.0781 
    109 H109      -77.4210   23.9960  -72.0847 H         1 UNK         0.0781 
    110 H110      -78.2872   26.1465  -70.1239 H         1 UNK         0.0836 
    111 H111      -77.0504   26.9918  -69.2252 H         1 UNK         0.0836 
    112 H112      -77.4938   23.6215  -74.5314 H         1 UNK         0.3022 
    113 H113      -75.9665   21.7995  -77.1072 H         1 UNK         0.0747 
    114 H114      -77.0988   19.7905  -76.1896 H         1 UNK         0.0793 
    115 H115      -75.6357   20.1303  -75.2815 H         1 UNK         0.0793 
    116 H116      -77.2015   20.5429  -74.5967 H         1 UNK         0.0793 
    117 H117      -78.6624   21.8814  -76.0987 H         1 UNK         0.3047 
    118 H118      -79.6080   24.8371  -77.8952 H         1 UNK         0.0822 
    119 H119      -81.2758   23.2984  -78.8410 H         1 UNK         0.0807 
    120 H120      -80.3861   21.8963  -78.2459 H         1 UNK         0.0807 
    121 H121      -79.6980   22.9138  -79.5040 H         1 UNK         0.0807 
    122 H122      -81.3783   23.4648  -76.4029 H         1 UNK         0.2946 
    123 H123      -81.9094   23.6512  -74.2486 H         1 UNK         0.1144 
    124 H124      -80.0171   23.2357  -72.6329 H         1 UNK         0.0793 
    125 H125      -81.3901   24.0447  -71.8944 H         1 UNK         0.0793 
    126 H126      -79.9447   24.9603  -72.2997 H         1 UNK         0.0793 
    127 H127      -82.9265   25.6280  -74.1286 H         1 UNK         0.2896 
@<TRIPOS>BOND
     1    1    2 1    
     2    1   67 1    
     3    1   68 1    
     4    1   69 1    
     5    2    3 2    
     6    2    4 am   BACKBONE|DICT|INTERRES
     7    4    5 1    
     8    4   70 1    
     9    5    6 1    
    10    5   65 1    
    11    5   71 1    
    12    6    7 1    
    13    6   72 1    
    14    6   73 1    
    15    7    8 1    
    16    8    9 1    
    17    8   74 1    
    18    8   75 1    
    19    9   10 ar   
    20    9   14 ar   
    21   10   11 ar   
    22   10   76 1    
    23   11   12 ar   
    24   11   48 1    
    25   12   13 ar   
    26   12   77 1    
    27   13   14 ar   
    28   13   15 1    
    29   14   78 1    
    30   15   16 1    
    31   15   79 1    
    32   15   80 1    
    33   16   17 1    
    34   17   18 1    
    35   17   81 1    
    36   17   82 1    
    37   18   19 1    
    38   18   22 1    
    39   18   83 1    
    40   19   20 am   BACKBONE|DICT|INTERRES
    41   19   21 2    
    42   20   84 1    
    43   20   85 1    
    44   22   23 am   BACKBONE|DICT|INTERRES
    45   22   86 1    
    46   23   24 2    
    47   23   25 1    
    48   25   26 1    
    49   25   27 1    
    50   25   87 1    
    51   26   88 1    
    52   26   89 1    
    53   26   90 1    
    54   27   28 am   BACKBONE|DICT|INTERRES
    55   27   91 1    
    56   28   29 2    
    57   28   30 1    
    58   30   31 1    
    59   30   32 1    
    60   30   92 1    
    61   31   93 1    
    62   31   94 1    
    63   31   95 1    
    64   32   33 am   BACKBONE|DICT|INTERRES
    65   32   96 1    
    66   33   34 2    
    67   33   35 1    
    68   35   36 1    
    69   35   37 1    
    70   35   97 1    
    71   36   98 1    
    72   36   99 1    
    73   36  100 1    
    74   37   38 am   BACKBONE|DICT|INTERRES
    75   37  101 1    
    76   38   39 2    
    77   38   40 1    
    78   40   41 1    
    79   40   42 1    
    80   40  102 1    
    81   41  103 1    
    82   41  104 1    
    83   41  105 1    
    84   42   43 am   BACKBONE|DICT|INTERRES
    85   42  106 1    
    86   43   44 2    
    87   43   45 1    
    88   45   46 1    
    89   45   49 1    
    90   45  107 1    
    91   46   47 1    
    92   46  108 1    
    93   46  109 1    
    94   47   48 1    
    95   48  110 1    
    96   48  111 1    
    97   49   50 am   BACKBONE|DICT|INTERRES
    98   49  112 1    
    99   50   51 2    
   100   50   52 1    
   101   52   53 1    
   102   52   54 1    
   103   52  113 1    
   104   53  114 1    
   105   53  115 1    
   106   53  116 1    
   107   54   55 am   BACKBONE|DICT|INTERRES
   108   54  117 1    
   109   55   56 2    
   110   55   57 1    
   111   57   58 1    
   112   57   59 1    
   113   57  118 1    
   114   58  119 1    
   115   58  120 1    
   116   58  121 1    
   117   59   60 am   BACKBONE|DICT|INTERRES
   118   59  122 1    
   119   60   61 2    
   120   60   62 1    
   121   62   63 1    
   122   62   64 1    
   123   62  123 1    
   124   63  124 1    
   125   63  125 1    
   126   63  126 1    
   127   64   65 am   BACKBONE|DICT|INTERRES
   128   64  127 1    
   129   65   66 2    
@<TRIPOS>SUBSTRUCTURE
     1 UNK         1 GROUP             0       ****    0 ROOT    
