@<TRIPOS>MOLECULE
3R135
127   129    1
SMALL
USER_CHARGES


@<TRIPOS>ATOM
      1 CA        -81.4990   24.1784  -71.8767 C.3       0 UNK        -0.1998 
      2 C         -82.1488   25.2604  -72.7246 C.2       0 UNK         0.4909 
      3 O         -83.1402   24.9945  -73.4038 O.2       0 UNK        -0.5240 
      4 N         -81.5910   26.4781  -72.7042 N.am      1 UNK        -0.4739 
      5 CA        -82.1061   27.6597  -73.4182 C.3       1 UNK         0.0864 
      6 C6        -81.7495   28.9858  -72.6948 C.3       11 UNK        -0.0881 
      7 S7        -82.2803   29.0012  -70.9457 S.3       11 UNK        -0.2682 
      8 C8        -81.0424   30.1004  -70.1709 C.3       11 UNK         0.0289 
      9 C9        -79.5961   29.6634  -70.3916 C.ar      11 UNK        -0.0687 
     10 C10       -79.2220   28.3200  -70.2697 C.ar      11 UNK        -0.0823 
     11 C11       -77.9068   27.9276  -70.5260 C.ar      11 UNK        -0.0830 
     12 C12       -76.9472   28.8933  -70.8277 C.ar      11 UNK        -0.1021 
     13 C13       -77.3034   30.2356  -70.9758 C.ar      11 UNK        -0.0753 
     14 C14       -78.6314   30.6136  -70.7487 C.ar      11 UNK        -0.0933 
     15 C15       -76.2672   31.2722  -71.4020 C.3       11 UNK         0.0166 
     16 S16       -75.4098   30.8143  -72.9522 S.3       11 UNK        -0.2615 
     17 C17       -74.0118   29.8112  -72.3326 C.3       11 UNK        -0.0865 
     18 CA        -72.6705   30.1855  -73.0123 C.3       10 UNK         0.0862 
     19 C         -71.4501   29.7199  -72.1586 C.2       10 UNK         0.5551 
     20 N         -70.5130   28.9332  -72.6737 N.am      10 UNK        -0.7319 
     21 O         -71.3456   30.0939  -70.9930 O.2       10 UNK        -0.5018 
     22 N         -72.6520   29.7309  -74.4114 N.am      10 UNK        -0.4509 
     23 C         -71.8538   30.2240  -75.3654 C.2       10 UNK         0.4899 
     24 O         -71.1183   31.2001  -75.2075 O.2       10 UNK        -0.4839 
     25 CA        -71.8647   29.4689  -76.7090 C.3       9 UNK         0.0222 
     26 CB        -70.7288   29.9064  -77.6570 C.3       9 UNK        -0.1966 
     27 N         -71.8579   28.0101  -76.5372 N.am      9 UNK        -0.4218 
     28 C         -70.9594   27.2645  -75.8735 C.2       9 UNK         0.5020 
     29 O         -69.9674   27.7305  -75.3122 O.2       9 UNK        -0.5274 
     30 CA        -71.2187   25.7484  -75.7719 C.3       8 UNK         0.0270 
     31 CB        -71.5953   25.3737  -74.3282 C.3       8 UNK        -0.1976 
     32 N         -72.2730   25.2733  -76.6696 N.am      8 UNK        -0.4313 
     33 C         -72.1575   25.1399  -77.9978 C.2       8 UNK         0.5041 
     34 O         -71.1041   25.2949  -78.6159 O.2       8 UNK        -0.5577 
     35 CA        -73.4562   24.8449  -78.7680 C.3       7 UNK         0.0284 
     36 CB        -73.7683   23.3399  -78.7719 C.3       7 UNK        -0.1958 
     37 N         -74.5956   25.5952  -78.2266 N.am      7 UNK        -0.4454 
     38 C         -74.7270   26.9279  -78.3058 C.2       7 UNK         0.5089 
     39 O         -73.9320   27.6572  -78.8965 O.2       7 UNK        -0.5125 
     40 CA        -75.9144   27.5669  -77.5713 C.3       6 UNK         0.0408 
     41 CB        -77.1074   27.7357  -78.5241 C.3       6 UNK        -0.1791 
     42 N         -76.3174   26.8048  -76.3862 N.am      6 UNK        -0.4762 
     43 C         -75.6656   26.8458  -75.2130 C.2       6 UNK         0.5007 
     44 O         -74.6568   27.5274  -75.0148 O.2       6 UNK        -0.5032 
     45 CA        -76.2148   25.9520  -74.0811 C.3       5 UNK         0.0783 
     46 C46       -77.4644   26.6010  -73.4380 C.3       11 UNK        -0.0857 
     47 S47       -78.1581   25.6271  -72.0504 S.3       11 UNK        -0.2512 
     48 C48       -77.5253   26.4568  -70.5530 C.3       11 UNK         0.0225 
     49 N         -76.4856   24.5788  -74.5144 N.am      5 UNK        -0.4615 
     50 C         -75.6249   23.7270  -75.0799 C.2       4 UNK         0.5053 
     51 O         -74.4679   24.0243  -75.3720 O.2       4 UNK        -0.5105 
     52 CA        -76.1374   22.3098  -75.4014 C.3       4 UNK         0.0263 
     53 CB        -76.0371   21.3913  -74.1681 C.3       4 UNK        -0.1981 
     54 N         -77.4786   22.2782  -76.0064 N.am      4 UNK        -0.4224 
     55 C         -78.6544   22.6085  -75.4533 C.2       3 UNK         0.4895 
     56 O         -78.8072   22.9253  -74.2726 O.2       3 UNK        -0.5091 
     57 CA        -79.8595   22.6704  -76.4039 C.3       3 UNK         0.0250 
     58 CB        -80.9522   21.6811  -75.9658 C.3       3 UNK        -0.1996 
     59 N         -80.4266   24.0208  -76.4656 N.am      3 UNK        -0.4254 
     60 C         -79.7597   25.1357  -76.8053 C.2       2 UNK         0.5004 
     61 O         -78.5671   25.1696  -77.1085 O.2       2 UNK        -0.5226 
     62 CA        -80.5561   26.4396  -76.7529 C.3       2 UNK         0.0269 
     63 CB        -81.6585   26.4649  -77.8316 C.3       2 UNK        -0.1926 
     64 N         -81.1030   26.5979  -75.4084 N.am      2 UNK        -0.4687 
     65 C         -81.6666   27.7006  -74.9020 C.2       1 UNK         0.5165 
     66 O         -81.8293   28.7330  -75.5543 O.2       1 UNK        -0.5079 
     67 H67       -82.2606   23.5609  -71.4014 H         1 UNK         0.0900 
     68 H68       -80.8765   23.5360  -72.4994 H         1 UNK         0.0900 
     69 H69       -80.8749   24.6035  -71.0910 H         1 UNK         0.0900 
     70 H70       -80.7587   26.6337  -72.1523 H         1 UNK         0.2959 
     71 H71       -83.1962   27.5909  -73.4382 H         1 UNK         0.1079 
     72 H72       -82.2282   29.8344  -73.1874 H         1 UNK         0.0837 
     73 H73       -80.6758   29.1661  -72.7622 H         1 UNK         0.0837 
     74 H74       -81.2343   30.1428  -69.0982 H         1 UNK         0.0685 
     75 H75       -81.1994   31.1103  -70.5530 H         1 UNK         0.0685 
     76 H76       -79.9627   27.5730  -70.0199 H         1 UNK         0.1434 
     77 H77       -75.9313   28.5803  -71.0049 H         1 UNK         0.1329 
     78 H78       -78.9180   31.6505  -70.8602 H         1 UNK         0.1335 
     79 H79       -75.5499   31.4299  -70.5959 H         1 UNK         0.0680 
     80 H80       -76.7501   32.2368  -71.5656 H         1 UNK         0.0680 
     81 H81       -74.2296   28.7545  -72.4959 H         1 UNK         0.1032 
     82 H82       -73.9454   29.9410  -71.2511 H         1 UNK         0.1032 
     83 H83       -72.6025   31.2751  -73.0216 H         1 UNK         0.0461 
     84 H84       -69.7374   28.6589  -72.0926 H         1 UNK         0.3453 
     85 H85       -70.5346   28.6408  -73.6443 H         1 UNK         0.3453 
     86 H86       -73.2452   28.9363  -74.6309 H         1 UNK         0.2984 
     87 H87       -72.8121   29.7157  -77.1902 H         1 UNK         0.0554 
     88 H88       -70.7925   30.9723  -77.8791 H         1 UNK         0.0847 
     89 H89       -70.7808   29.3748  -78.6072 H         1 UNK         0.0847 
     90 H90       -69.7456   29.7223  -77.2226 H         1 UNK         0.0847 
     91 H91       -72.6415   27.5266  -76.9540 H         1 UNK         0.3141 
     92 H92       -70.2887   25.2383  -76.0308 H         1 UNK         0.0743 
     93 H93       -70.8150   25.6732  -73.6271 H         1 UNK         0.0784 
     94 H94       -72.5202   25.8604  -74.0150 H         1 UNK         0.0784 
     95 H95       -71.7318   24.2975  -74.2204 H         1 UNK         0.0784 
     96 H96       -73.1601   25.0266  -76.2333 H         1 UNK         0.3213 
     97 H97       -73.3075   25.1621  -79.8027 H         1 UNK         0.0855 
     98 H98       -73.8927   22.9457  -77.7638 H         1 UNK         0.0814 
     99 H99       -72.9573   22.7793  -79.2388 H         1 UNK         0.0814 
    100 H100      -74.6764   23.1225  -79.3344 H         1 UNK         0.0814 
    101 H101      -75.2835   25.0789  -77.6980 H         1 UNK         0.3105 
    102 H102      -75.6046   28.5640  -77.2498 H         1 UNK         0.0547 
    103 H103      -77.4669   26.7779  -78.9012 H         1 UNK         0.0837 
    104 H104      -77.9380   28.2418  -78.0335 H         1 UNK         0.0837 
    105 H105      -76.8300   28.3394  -79.3893 H         1 UNK         0.0837 
    106 H106      -77.1188   26.1851  -76.4937 H         1 UNK         0.3020 
    107 H107      -75.4332   25.8937  -73.3209 H         1 UNK         0.1245 
    108 H108      -78.2574   26.7014  -74.1815 H         1 UNK         0.0781 
    109 H109      -77.2419   27.6175  -73.1176 H         1 UNK         0.0781 
    110 H110      -76.4424   26.3317  -70.5062 H         1 UNK         0.0836 
    111 H111      -77.9296   25.9580  -69.6711 H         1 UNK         0.0836 
    112 H112      -77.4094   24.2169  -74.2923 H         1 UNK         0.3022 
    113 H113      -75.4671   21.9029  -76.1598 H         1 UNK         0.0747 
    114 H114      -76.3525   20.3750  -74.4039 H         1 UNK         0.0793 
    115 H115      -75.0084   21.3371  -73.8096 H         1 UNK         0.0793 
    116 H116      -76.6477   21.7483  -73.3382 H         1 UNK         0.0793 
    117 H117      -77.4819   22.0763  -76.9969 H         1 UNK         0.3047 
    118 H118      -79.5363   22.4018  -77.4118 H         1 UNK         0.0822 
    119 H119      -81.7862   21.6723  -76.6678 H         1 UNK         0.0807 
    120 H120      -81.3464   21.9265  -74.9784 H         1 UNK         0.0807 
    121 H121      -80.5607   20.6641  -75.9164 H         1 UNK         0.0807 
    122 H122      -81.4036   24.1039  -76.2253 H         1 UNK         0.2946 
    123 H123      -79.8632   27.2621  -76.9399 H         1 UNK         0.1144 
    124 H124      -82.1321   27.4443  -77.8973 H         1 UNK         0.0793 
    125 H125      -82.4406   25.7313  -77.6341 H         1 UNK         0.0793 
    126 H126      -81.2445   26.2463  -78.8170 H         1 UNK         0.0793 
    127 H127      -80.9832   25.8108  -74.7850 H         1 UNK         0.2896 
@<TRIPOS>BOND
     1    1    2 1    
     2    1   67 1    
     3    1   68 1    
     4    1   69 1    
     5    2    3 2    
     6    2    4 am   BACKBONE|DICT|INTERRES
     7    4    5 1    
     8    4   70 1    
     9    5    6 1    
    10    5   65 1    
    11    5   71 1    
    12    6    7 1    
    13    6   72 1    
    14    6   73 1    
    15    7    8 1    
    16    8    9 1    
    17    8   74 1    
    18    8   75 1    
    19    9   10 ar   
    20    9   14 ar   
    21   10   11 ar   
    22   10   76 1    
    23   11   12 ar   
    24   11   48 1    
    25   12   13 ar   
    26   12   77 1    
    27   13   14 ar   
    28   13   15 1    
    29   14   78 1    
    30   15   16 1    
    31   15   79 1    
    32   15   80 1    
    33   16   17 1    
    34   17   18 1    
    35   17   81 1    
    36   17   82 1    
    37   18   19 1    
    38   18   22 1    
    39   18   83 1    
    40   19   20 am   BACKBONE|DICT|INTERRES
    41   19   21 2    
    42   20   84 1    
    43   20   85 1    
    44   22   23 am   BACKBONE|DICT|INTERRES
    45   22   86 1    
    46   23   24 2    
    47   23   25 1    
    48   25   26 1    
    49   25   27 1    
    50   25   87 1    
    51   26   88 1    
    52   26   89 1    
    53   26   90 1    
    54   27   28 am   BACKBONE|DICT|INTERRES
    55   27   91 1    
    56   28   29 2    
    57   28   30 1    
    58   30   31 1    
    59   30   32 1    
    60   30   92 1    
    61   31   93 1    
    62   31   94 1    
    63   31   95 1    
    64   32   33 am   BACKBONE|DICT|INTERRES
    65   32   96 1    
    66   33   34 2    
    67   33   35 1    
    68   35   36 1    
    69   35   37 1    
    70   35   97 1    
    71   36   98 1    
    72   36   99 1    
    73   36  100 1    
    74   37   38 am   BACKBONE|DICT|INTERRES
    75   37  101 1    
    76   38   39 2    
    77   38   40 1    
    78   40   41 1    
    79   40   42 1    
    80   40  102 1    
    81   41  103 1    
    82   41  104 1    
    83   41  105 1    
    84   42   43 am   BACKBONE|DICT|INTERRES
    85   42  106 1    
    86   43   44 2    
    87   43   45 1    
    88   45   46 1    
    89   45   49 1    
    90   45  107 1    
    91   46   47 1    
    92   46  108 1    
    93   46  109 1    
    94   47   48 1    
    95   48  110 1    
    96   48  111 1    
    97   49   50 am   BACKBONE|DICT|INTERRES
    98   49  112 1    
    99   50   51 2    
   100   50   52 1    
   101   52   53 1    
   102   52   54 1    
   103   52  113 1    
   104   53  114 1    
   105   53  115 1    
   106   53  116 1    
   107   54   55 am   BACKBONE|DICT|INTERRES
   108   54  117 1    
   109   55   56 2    
   110   55   57 1    
   111   57   58 1    
   112   57   59 1    
   113   57  118 1    
   114   58  119 1    
   115   58  120 1    
   116   58  121 1    
   117   59   60 am   BACKBONE|DICT|INTERRES
   118   59  122 1    
   119   60   61 2    
   120   60   62 1    
   121   62   63 1    
   122   62   64 1    
   123   62  123 1    
   124   63  124 1    
   125   63  125 1    
   126   63  126 1    
   127   64   65 am   BACKBONE|DICT|INTERRES
   128   64  127 1    
   129   65   66 2    
@<TRIPOS>SUBSTRUCTURE
     1 UNK         1 GROUP             0       ****    0 ROOT    
