@<TRIPOS>MOLECULE
3R135
127   129    1
SMALL
USER_CHARGES


@<TRIPOS>ATOM
      1 CA        -83.9154   27.0050  -70.6551 C.3       0 UNK        -0.1998 
      2 C         -83.6418   27.3507  -72.1111 C.2       0 UNK         0.4909 
      3 O         -84.5219   27.1847  -72.9560 O.2       0 UNK        -0.5240 
      4 N         -82.4281   27.8337  -72.4073 N.am      1 UNK        -0.4739 
      5 CA        -81.9747   28.2010  -73.7558 C.3       1 UNK         0.0864 
      6 C6        -80.6885   29.0618  -73.7172 C.3       11 UNK        -0.0881 
      7 S7        -80.9542   30.6979  -72.9423 S.3       11 UNK        -0.2682 
      8 C8        -80.5348   30.4342  -71.1844 C.3       11 UNK         0.0289 
      9 C9        -79.0979   29.9743  -70.9914 C.ar      11 UNK        -0.0687 
     10 C10       -78.8207   28.6305  -70.7197 C.ar      11 UNK        -0.0823 
     11 C11       -77.4999   28.1872  -70.6150 C.ar      11 UNK        -0.0830 
     12 C12       -76.4564   29.1086  -70.7227 C.ar      11 UNK        -0.1021 
     13 C13       -76.7204   30.4562  -70.9765 C.ar      11 UNK        -0.0753 
     14 C14       -78.0438   30.8862  -71.1097 C.ar      11 UNK        -0.0933 
     15 C15       -75.5657   31.4291  -71.1379 C.3       11 UNK         0.0166 
     16 S16       -74.9146   31.3748  -72.8383 S.3       11 UNK        -0.2615 
     17 C17       -73.1106   31.4540  -72.5487 C.3       11 UNK        -0.0865 
     18 CA        -72.3673   30.1052  -72.7741 C.3       10 UNK         0.0862 
     19 C         -72.7375   28.9995  -71.7499 C.2       10 UNK         0.5551 
     20 N         -72.4626   29.2230  -70.4719 N.am      10 UNK        -0.7319 
     21 O         -73.2676   27.9445  -72.0951 O.2       10 UNK        -0.5018 
     22 N         -72.4870   29.6125  -74.1492 N.am      10 UNK        -0.4509 
     23 C         -71.8090   30.0789  -75.2021 C.2       10 UNK         0.4899 
     24 O         -71.0464   31.0460  -75.1539 O.2       10 UNK        -0.4839 
     25 CA        -72.0106   29.3146  -76.5231 C.3       9 UNK         0.0222 
     26 CB        -71.0220   29.7321  -77.6322 C.3       9 UNK        -0.1966 
     27 N         -71.9984   27.8622  -76.3228 N.am      9 UNK        -0.4218 
     28 C         -70.9964   27.0980  -75.8613 C.2       9 UNK         0.5020 
     29 O         -69.8756   27.5200  -75.5730 O.2       9 UNK        -0.5274 
     30 CA        -71.2981   25.5985  -75.6798 C.3       8 UNK         0.0270 
     31 CB        -71.7146   25.3119  -74.2280 C.3       8 UNK        -0.1976 
     32 N         -72.3344   25.1020  -76.5911 N.am      8 UNK        -0.4313 
     33 C         -72.1832   24.9872  -77.9189 C.2       8 UNK         0.5041 
     34 O         -71.1223   25.1972  -78.5086 O.2       8 UNK        -0.5577 
     35 CA        -73.4287   24.5978  -78.7320 C.3       7 UNK         0.0284 
     36 CB        -73.6426   23.0759  -78.7029 C.3       7 UNK        -0.1958 
     37 N         -74.6425   25.2814  -78.2760 N.am      7 UNK        -0.4454 
     38 C         -74.8567   26.6027  -78.3637 C.2       7 UNK         0.5089 
     39 O         -74.0715   27.3916  -78.8885 O.2       7 UNK        -0.5125 
     40 CA        -76.1471   27.1462  -77.7245 C.3       6 UNK         0.0408 
     41 CB        -77.3484   26.9598  -78.6637 C.3       6 UNK        -0.1791 
     42 N         -76.4358   26.5378  -76.4244 N.am      6 UNK        -0.4762 
     43 C         -75.6639   26.6636  -75.3336 C.2       6 UNK         0.5007 
     44 O         -74.6412   27.3476  -75.2911 O.2       6 UNK        -0.5032 
     45 CA        -76.0921   25.8523  -74.0972 C.3       5 UNK         0.0783 
     46 C46       -77.1987   26.6101  -73.3277 C.3       11 UNK        -0.0857 
     47 S47       -77.8250   25.7147  -71.8604 S.3       11 UNK        -0.2512 
     48 C48       -77.1880   26.7044  -70.4635 C.3       11 UNK         0.0225 
     49 N         -76.4950   24.4957  -74.4786 N.am      5 UNK        -0.4615 
     50 C         -75.6703   23.5645  -74.9760 C.2       4 UNK         0.5053 
     51 O         -74.4633   23.7368  -75.1416 O.2       4 UNK        -0.5105 
     52 CA        -76.3098   22.2325  -75.4033 C.3       4 UNK         0.0263 
     53 CB        -76.4978   21.3093  -74.1891 C.3       4 UNK        -0.1981 
     54 N         -77.5938   22.4170  -76.0847 N.am      4 UNK        -0.4224 
     55 C         -77.7446   23.0417  -77.2622 C.2       3 UNK         0.4895 
     56 O         -76.8072   23.4673  -77.9341 O.2       3 UNK        -0.5091 
     57 CA        -79.1835   23.2773  -77.7532 C.3       3 UNK         0.0250 
     58 CB        -79.6607   22.0933  -78.6087 C.3       3 UNK        -0.1996 
     59 N         -80.1427   23.5215  -76.6704 N.am      3 UNK        -0.4254 
     60 C         -80.0687   24.5349  -75.7959 C.2       2 UNK         0.5004 
     61 O         -79.1684   25.3783  -75.8004 O.2       2 UNK        -0.5226 
     62 CA        -81.1440   24.5470  -74.6957 C.3       2 UNK         0.0269 
     63 CB        -80.8011   23.5145  -73.6077 C.3       2 UNK        -0.1926 
     64 N         -81.3156   25.8529  -74.0559 N.am      2 UNK        -0.4687 
     65 C         -81.7835   26.9589  -74.6535 C.2       1 UNK         0.5165 
     66 O         -82.1034   27.0144  -75.8422 O.2       1 UNK        -0.5079 
     67 H67       -83.0559   27.2104  -70.0172 H         1 UNK         0.0900 
     68 H68       -84.7589   27.5865  -70.2840 H         1 UNK         0.0900 
     69 H69       -84.1624   25.9479  -70.5610 H         1 UNK         0.0900 
     70 H70       -81.7539   27.9598  -71.6688 H         1 UNK         0.2959 
     71 H71       -82.7643   28.7982  -74.2183 H         1 UNK         0.1079 
     72 H72       -80.3386   29.2537  -74.7337 H         1 UNK         0.0837 
     73 H73       -79.8733   28.5300  -73.2271 H         1 UNK         0.0837 
     74 H74       -80.6845   31.3725  -70.6482 H         1 UNK         0.0685 
     75 H75       -81.2333   29.7245  -70.7408 H         1 UNK         0.0685 
     76 H76       -79.6266   27.9147  -70.6412 H         1 UNK         0.1434 
     77 H77       -75.4324   28.7711  -70.6492 H         1 UNK         0.1329 
     78 H78       -78.2542   31.9242  -71.3288 H         1 UNK         0.1335 
     79 H79       -74.7870   31.1766  -70.4171 H         1 UNK         0.0680 
     80 H80       -75.8816   32.4472  -70.9054 H         1 UNK         0.0680 
     81 H81       -72.7044   32.2055  -73.2269 H         1 UNK         0.1032 
     82 H82       -72.9051   31.8440  -71.5510 H         1 UNK         0.1032 
     83 H83       -71.3038   30.2884  -72.6079 H         1 UNK         0.0461 
     84 H84       -72.6870   28.5117  -69.7945 H         1 UNK         0.3453 
     85 H85       -72.0087   30.0713  -70.1723 H         1 UNK         0.3453 
     86 H86       -73.0875   28.8020  -74.2570 H         1 UNK         0.2984 
     87 H87       -73.0157   29.5611  -76.8684 H         1 UNK         0.0554 
     88 H88       -71.1227   30.7927  -77.8652 H         1 UNK         0.0847 
     89 H89       -71.2068   29.1789  -78.5532 H         1 UNK         0.0847 
     90 H90       -69.9857   29.5612  -77.3394 H         1 UNK         0.0847 
     91 H91       -72.9008   27.4135  -76.4357 H         1 UNK         0.3141 
     92 H92       -70.3769   25.0497  -75.8859 H         1 UNK         0.0743 
     93 H93       -72.6441   25.8198  -73.9676 H         1 UNK         0.0784 
     94 H94       -71.8581   24.2445  -74.0591 H         1 UNK         0.0784 
     95 H95       -70.9515   25.6524  -73.5268 H         1 UNK         0.0784 
     96 H96       -73.2175   24.8218  -76.1708 H         1 UNK         0.3213 
     97 H97       -73.2518   24.8949  -79.7680 H         1 UNK         0.0855 
     98 H98       -73.8589   22.7170  -77.6963 H         1 UNK         0.0814 
     99 H99       -72.7541   22.5497  -79.0541 H         1 UNK         0.0814 
    100 H100      -74.4704   22.7801  -79.3477 H         1 UNK         0.0814 
    101 H101      -75.3846   24.6924  -77.9039 H         1 UNK         0.3105 
    102 H102      -76.0111   28.2173  -77.5606 H         1 UNK         0.0547 
    103 H103      -77.1844   27.4764  -79.6102 H         1 UNK         0.0837 
    104 H104      -77.5235   25.9094  -78.8945 H         1 UNK         0.0837 
    105 H105      -78.2620   27.3636  -78.2267 H         1 UNK         0.0837 
    106 H106      -77.2842   25.9838  -76.3489 H         1 UNK         0.3020 
    107 H107      -75.2193   25.7709  -73.4446 H         1 UNK         0.1245 
    108 H108      -78.0563   26.8054  -73.9726 H         1 UNK         0.0781 
    109 H109      -76.8258   27.5936  -73.0427 H         1 UNK         0.0781 
    110 H110      -76.1121   26.5397  -70.3838 H         1 UNK         0.0836 
    111 H111      -77.6264   26.3363  -69.5351 H         1 UNK         0.0836 
    112 H112      -77.4828   24.2982  -74.4170 H         1 UNK         0.3022 
    113 H113      -75.6263   21.7450  -76.1016 H         1 UNK         0.0747 
    114 H114      -76.8761   20.3317  -74.4887 H         1 UNK         0.0793 
    115 H115      -75.5493   21.1443  -73.6759 H         1 UNK         0.0793 
    116 H116      -77.1927   21.7308  -73.4614 H         1 UNK         0.0793 
    117 H117      -78.4197   22.0893  -75.6065 H         1 UNK         0.3047 
    118 H118      -79.1702   24.1687  -78.3833 H         1 UNK         0.0822 
    119 H119      -80.6404   22.2879  -79.0456 H         1 UNK         0.0807 
    120 H120      -79.7279   21.1731  -78.0270 H         1 UNK         0.0807 
    121 H121      -78.9722   21.9071  -79.4344 H         1 UNK         0.0807 
    122 H122      -80.9069   22.8654  -76.5919 H         1 UNK         0.2946 
    123 H123      -82.0988   24.2773  -75.1530 H         1 UNK         0.1144 
    124 H124      -81.5712   23.4804  -72.8366 H         1 UNK         0.0793 
    125 H125      -79.8515   23.7410  -73.1213 H         1 UNK         0.0793 
    126 H126      -80.7227   22.5091  -74.0231 H         1 UNK         0.0793 
    127 H127      -81.0674   25.9110  -73.0798 H         1 UNK         0.2896 
@<TRIPOS>BOND
     1    1    2 1    
     2    1   67 1    
     3    1   68 1    
     4    1   69 1    
     5    2    3 2    
     6    2    4 am   BACKBONE|DICT|INTERRES
     7    4    5 1    
     8    4   70 1    
     9    5    6 1    
    10    5   65 1    
    11    5   71 1    
    12    6    7 1    
    13    6   72 1    
    14    6   73 1    
    15    7    8 1    
    16    8    9 1    
    17    8   74 1    
    18    8   75 1    
    19    9   10 ar   
    20    9   14 ar   
    21   10   11 ar   
    22   10   76 1    
    23   11   12 ar   
    24   11   48 1    
    25   12   13 ar   
    26   12   77 1    
    27   13   14 ar   
    28   13   15 1    
    29   14   78 1    
    30   15   16 1    
    31   15   79 1    
    32   15   80 1    
    33   16   17 1    
    34   17   18 1    
    35   17   81 1    
    36   17   82 1    
    37   18   19 1    
    38   18   22 1    
    39   18   83 1    
    40   19   20 am   BACKBONE|DICT|INTERRES
    41   19   21 2    
    42   20   84 1    
    43   20   85 1    
    44   22   23 am   BACKBONE|DICT|INTERRES
    45   22   86 1    
    46   23   24 2    
    47   23   25 1    
    48   25   26 1    
    49   25   27 1    
    50   25   87 1    
    51   26   88 1    
    52   26   89 1    
    53   26   90 1    
    54   27   28 am   BACKBONE|DICT|INTERRES
    55   27   91 1    
    56   28   29 2    
    57   28   30 1    
    58   30   31 1    
    59   30   32 1    
    60   30   92 1    
    61   31   93 1    
    62   31   94 1    
    63   31   95 1    
    64   32   33 am   BACKBONE|DICT|INTERRES
    65   32   96 1    
    66   33   34 2    
    67   33   35 1    
    68   35   36 1    
    69   35   37 1    
    70   35   97 1    
    71   36   98 1    
    72   36   99 1    
    73   36  100 1    
    74   37   38 am   BACKBONE|DICT|INTERRES
    75   37  101 1    
    76   38   39 2    
    77   38   40 1    
    78   40   41 1    
    79   40   42 1    
    80   40  102 1    
    81   41  103 1    
    82   41  104 1    
    83   41  105 1    
    84   42   43 am   BACKBONE|DICT|INTERRES
    85   42  106 1    
    86   43   44 2    
    87   43   45 1    
    88   45   46 1    
    89   45   49 1    
    90   45  107 1    
    91   46   47 1    
    92   46  108 1    
    93   46  109 1    
    94   47   48 1    
    95   48  110 1    
    96   48  111 1    
    97   49   50 am   BACKBONE|DICT|INTERRES
    98   49  112 1    
    99   50   51 2    
   100   50   52 1    
   101   52   53 1    
   102   52   54 1    
   103   52  113 1    
   104   53  114 1    
   105   53  115 1    
   106   53  116 1    
   107   54   55 am   BACKBONE|DICT|INTERRES
   108   54  117 1    
   109   55   56 2    
   110   55   57 1    
   111   57   58 1    
   112   57   59 1    
   113   57  118 1    
   114   58  119 1    
   115   58  120 1    
   116   58  121 1    
   117   59   60 am   BACKBONE|DICT|INTERRES
   118   59  122 1    
   119   60   61 2    
   120   60   62 1    
   121   62   63 1    
   122   62   64 1    
   123   62  123 1    
   124   63  124 1    
   125   63  125 1    
   126   63  126 1    
   127   64   65 am   BACKBONE|DICT|INTERRES
   128   64  127 1    
   129   65   66 2    
@<TRIPOS>SUBSTRUCTURE
     1 UNK         1 GROUP             0       ****    0 ROOT    
