@<TRIPOS>MOLECULE
3R135
127   129    1
SMALL
USER_CHARGES


@<TRIPOS>ATOM
      1 CA        -83.8428   28.8007  -74.3513 C.3       0 UNK        -0.1998 
      2 C         -83.1479   30.1595  -74.4319 C.2       0 UNK         0.4909 
      3 O         -83.8372   31.1715  -74.3164 O.2       0 UNK        -0.5240 
      4 N         -81.8234   30.2816  -74.6274 N.am      1 UNK        -0.4739 
      5 CA        -80.7638   29.2769  -74.8240 C.3       1 UNK         0.0864 
      6 C6        -80.0353   28.8648  -73.5124 C.3       11 UNK        -0.0881 
      7 S7        -81.0541   28.0344  -72.2410 S.3       11 UNK        -0.2682 
      8 C8        -80.5947   28.9446  -70.7280 C.3       11 UNK         0.0289 
      9 C9        -79.1061   28.8164  -70.4413 C.ar      11 UNK        -0.0687 
     10 C10       -78.5717   27.5800  -70.0674 C.ar      11 UNK        -0.0823 
     11 C11       -77.1899   27.4185  -69.9334 C.ar      11 UNK        -0.0830 
     12 C12       -76.3479   28.5190  -70.1135 C.ar      11 UNK        -0.1021 
     13 C13       -76.8723   29.7616  -70.4753 C.ar      11 UNK        -0.0753 
     14 C14       -78.2535   29.9097  -70.6262 C.ar      11 UNK        -0.0933 
     15 C15       -75.9360   30.9208  -70.7682 C.3       11 UNK         0.0166 
     16 S16       -75.4959   30.9484  -72.5379 S.3       11 UNK        -0.2615 
     17 C17       -73.6936   31.2496  -72.4770 C.3       11 UNK        -0.0865 
     18 CA        -72.8324   30.0078  -72.8394 C.3       10 UNK         0.0862 
     19 C         -72.9284   28.8581  -71.7986 C.2       10 UNK         0.5551 
     20 N         -73.2622   27.6312  -72.1815 N.am      10 UNK        -0.7319 
     21 O         -72.6636   29.0783  -70.6195 O.2       10 UNK        -0.5018 
     22 N         -73.0067   29.5750  -74.2346 N.am      10 UNK        -0.4509 
     23 C         -72.3790   30.1221  -75.2809 C.2       10 UNK         0.4899 
     24 O         -71.6529   31.1155  -75.2047 O.2       10 UNK        -0.4839 
     25 CA        -72.5830   29.4136  -76.6323 C.3       9 UNK         0.0222 
     26 CB        -71.7662   30.0411  -77.7813 C.3       9 UNK        -0.1966 
     27 N         -72.3314   27.9710  -76.5411 N.am      9 UNK        -0.4218 
     28 C         -71.2010   27.3454  -76.1758 C.2       9 UNK         0.5020 
     29 O         -70.1498   27.9239  -75.8973 O.2       9 UNK        -0.5274 
     30 CA        -71.2439   25.8064  -76.0878 C.3       8 UNK         0.0270 
     31 CB        -71.2771   25.3582  -74.6172 C.3       8 UNK        -0.1976 
     32 N         -72.3824   25.2092  -76.7921 N.am      8 UNK        -0.4313 
     33 C         -72.4967   25.1191  -78.1248 C.2       8 UNK         0.5041 
     34 O         -71.6059   25.4386  -78.9127 O.2       8 UNK        -0.5577 
     35 CA        -73.8530   24.6366  -78.6708 C.3       7 UNK         0.0284 
     36 CB        -73.9363   23.1027  -78.6516 C.3       7 UNK        -0.1958 
     37 N         -74.9908   25.2120  -77.9435 N.am      7 UNK        -0.4454 
     38 C         -75.2815   26.5215  -77.9116 C.2       7 UNK         0.5089 
     39 O         -74.6556   27.3773  -78.5348 O.2       7 UNK        -0.5125 
     40 CA        -76.4334   26.9661  -76.9999 C.3       6 UNK         0.0408 
     41 CB        -77.7747   26.8570  -77.7376 C.3       6 UNK        -0.1791 
     42 N         -76.4787   26.2077  -75.7488 N.am      6 UNK        -0.4762 
     43 C         -75.5887   26.3338  -74.7521 C.2       6 UNK         0.5007 
     44 O         -74.6595   27.1458  -74.7481 O.2       6 UNK        -0.5032 
     45 CA        -75.7458   25.3605  -73.5686 C.3       5 UNK         0.0783 
     46 C46       -76.8184   25.8885  -72.5939 C.3       11 UNK        -0.0857 
     47 S47       -76.9927   24.8757  -71.0782 S.3       11 UNK        -0.2512 
     48 C48       -76.5904   26.0351  -69.7192 C.3       11 UNK         0.0225 
     49 N         -76.0217   23.9970  -74.0255 N.am      5 UNK        -0.4615 
     50 C         -75.1629   23.2498  -74.7314 C.2       4 UNK         0.5053 
     51 O         -74.0388   23.6279  -75.0587 O.2       4 UNK        -0.5105 
     52 CA        -75.6467   21.8627  -75.1831 C.3       4 UNK         0.0263 
     53 CB        -75.3005   20.8056  -74.1230 C.3       4 UNK        -0.1981 
     54 N         -77.0798   21.8044  -75.4806 N.am      4 UNK        -0.4224 
     55 C         -77.7157   22.5378  -76.4058 C.2       3 UNK         0.4895 
     56 O         -77.1519   23.3651  -77.1265 O.2       3 UNK        -0.5091 
     57 CA        -79.2335   22.3045  -76.5590 C.3       3 UNK         0.0250 
     58 CB        -79.8596   21.4642  -75.4207 C.3       3 UNK        -0.1996 
     59 N         -79.9977   23.5457  -76.7323 N.am      3 UNK        -0.4254 
     60 C         -80.0149   24.6087  -75.9154 C.2       2 UNK         0.5004 
     61 O         -79.2889   24.7434  -74.9258 O.2       2 UNK        -0.5226 
     62 CA        -81.0418   25.6950  -76.2619 C.3       2 UNK         0.0269 
     63 CB        -82.4797   25.2057  -75.9989 C.3       2 UNK        -0.1926 
     64 N         -80.7838   26.8882  -75.4604 N.am      2 UNK        -0.4687 
     65 C         -81.1225   28.1355  -75.8028 C.2       1 UNK         0.5165 
     66 O         -81.6892   28.4131  -76.8621 O.2       1 UNK        -0.5079 
     67 H67       -84.7041   28.8605  -73.6864 H         1 UNK         0.0900 
     68 H68       -84.2021   28.5075  -75.3373 H         1 UNK         0.0900 
     69 H69       -83.2028   28.0095  -73.9726 H         1 UNK         0.0900 
     70 H70       -81.4785   31.2291  -74.6862 H         1 UNK         0.2959 
     71 H71       -80.0106   29.8264  -75.3919 H         1 UNK         0.1079 
     72 H72       -79.6127   29.7695  -73.0750 H         1 UNK         0.0837 
     73 H73       -79.1693   28.2353  -73.7265 H         1 UNK         0.0837 
     74 H74       -81.1627   28.5477  -69.8856 H         1 UNK         0.0685 
     75 H75       -80.8863   29.9907  -70.8340 H         1 UNK         0.0685 
     76 H76       -79.2246   26.7242  -69.9615 H         1 UNK         0.1434 
     77 H77       -75.2770   28.3967  -70.0311 H         1 UNK         0.1329 
     78 H78       -78.6574   30.8640  -70.9354 H         1 UNK         0.1335 
     79 H79       -75.0441   30.8304  -70.1466 H         1 UNK         0.0680 
     80 H80       -76.4046   31.8682  -70.4981 H         1 UNK         0.0680 
     81 H81       -73.4066   31.6369  -71.4981 H         1 UNK         0.1032 
     82 H82       -73.4704   32.0592  -73.1732 H         1 UNK         0.1032 
     83 H83       -71.7912   30.3240  -72.7482 H         1 UNK         0.0461 
     84 H84       -73.2802   26.9016  -71.4883 H         1 UNK         0.3453 
     85 H85       -73.5266   27.4347  -73.1364 H         1 UNK         0.3453 
     86 H86       -73.6099   28.7734  -74.3879 H         1 UNK         0.2984 
     87 H87       -73.6396   29.5242  -76.8804 H         1 UNK         0.0554 
     88 H88       -72.0265   31.0915  -77.9166 H         1 UNK         0.0847 
     89 H89       -71.9621   29.5344  -78.7263 H         1 UNK         0.0847 
     90 H90       -70.6935   29.9939  -77.5910 H         1 UNK         0.0847 
     91 H91       -73.1343   27.3883  -76.7359 H         1 UNK         0.3141 
     92 H92       -70.3245   25.4284  -76.5396 H         1 UNK         0.0743 
     93 H93       -70.4358   25.7722  -74.0597 H         1 UNK         0.0784 
     94 H94       -72.1910   25.6824  -74.1189 H         1 UNK         0.0784 
     95 H95       -71.2195   24.2728  -74.5328 H         1 UNK         0.0784 
     96 H96       -73.1272   24.8288  -76.2111 H         1 UNK         0.3213 
     97 H97       -73.9294   24.9666  -79.7092 H         1 UNK         0.0855 
     98 H98       -73.7823   22.7032  -77.6501 H         1 UNK         0.0814 
     99 H99       -73.1698   22.6665  -79.2933 H         1 UNK         0.0814 
    100 H100      -74.9026   22.7492  -79.0120 H         1 UNK         0.0814 
    101 H101      -75.6075   24.5679  -77.4555 H         1 UNK         0.3105 
    102 H102      -76.2719   28.0174  -76.7512 H         1 UNK         0.0547 
    103 H103      -78.5826   27.2792  -77.1441 H         1 UNK         0.0837 
    104 H104      -78.0267   25.8229  -77.9744 H         1 UNK         0.0837 
    105 H105      -77.7481   27.4084  -78.6785 H         1 UNK         0.0837 
    106 H106      -77.1964   25.4969  -75.6657 H         1 UNK         0.3020 
    107 H107      -74.7899   25.3365  -73.0415 H         1 UNK         0.1245 
    108 H108      -77.7963   25.9266  -73.0765 H         1 UNK         0.0781 
    109 H109      -76.5804   26.9202  -72.3389 H         1 UNK         0.0781 
    110 H110      -75.5050   26.0950  -69.6255 H         1 UNK         0.0836 
    111 H111      -76.9572   25.6238  -68.7779 H         1 UNK         0.0836 
    112 H112      -76.9379   23.6289  -73.8128 H         1 UNK         0.3022 
    113 H113      -75.1142   21.6089  -76.1006 H         1 UNK         0.0747 
    114 H114      -75.5517   19.8015  -74.4653 H         1 UNK         0.0793 
    115 H115      -74.2322   20.8119  -73.9014 H         1 UNK         0.0793 
    116 H116      -75.8286   20.9845  -73.1853 H         1 UNK         0.0793 
    117 H117      -77.6269   21.1544  -74.9352 H         1 UNK         0.3047 
    118 H118      -79.3522   21.7431  -77.4868 H         1 UNK         0.0822 
    119 H119      -80.9305   21.3331  -75.5773 H         1 UNK         0.0807 
    120 H120      -79.7287   21.9361  -74.4456 H         1 UNK         0.0807 
    121 H121      -79.4286   20.4634  -75.3736 H         1 UNK         0.0807 
    122 H122      -80.6019   23.5626  -77.5420 H         1 UNK         0.2946 
    123 H123      -80.9253   25.9389  -77.3206 H         1 UNK         0.1144 
    124 H124      -82.6298   24.9525  -74.9486 H         1 UNK         0.0793 
    125 H125      -82.7135   24.3170  -76.5862 H         1 UNK         0.0793 
    126 H126      -83.2139   25.9661  -76.2659 H         1 UNK         0.0793 
    127 H127      -80.2923   26.7124  -74.5919 H         1 UNK         0.2896 
@<TRIPOS>BOND
     1    1    2 1    
     2    1   67 1    
     3    1   68 1    
     4    1   69 1    
     5    2    3 2    
     6    2    4 am   BACKBONE|DICT|INTERRES
     7    4    5 1    
     8    4   70 1    
     9    5    6 1    
    10    5   65 1    
    11    5   71 1    
    12    6    7 1    
    13    6   72 1    
    14    6   73 1    
    15    7    8 1    
    16    8    9 1    
    17    8   74 1    
    18    8   75 1    
    19    9   10 ar   
    20    9   14 ar   
    21   10   11 ar   
    22   10   76 1    
    23   11   12 ar   
    24   11   48 1    
    25   12   13 ar   
    26   12   77 1    
    27   13   14 ar   
    28   13   15 1    
    29   14   78 1    
    30   15   16 1    
    31   15   79 1    
    32   15   80 1    
    33   16   17 1    
    34   17   18 1    
    35   17   81 1    
    36   17   82 1    
    37   18   19 1    
    38   18   22 1    
    39   18   83 1    
    40   19   20 am   BACKBONE|DICT|INTERRES
    41   19   21 2    
    42   20   84 1    
    43   20   85 1    
    44   22   23 am   BACKBONE|DICT|INTERRES
    45   22   86 1    
    46   23   24 2    
    47   23   25 1    
    48   25   26 1    
    49   25   27 1    
    50   25   87 1    
    51   26   88 1    
    52   26   89 1    
    53   26   90 1    
    54   27   28 am   BACKBONE|DICT|INTERRES
    55   27   91 1    
    56   28   29 2    
    57   28   30 1    
    58   30   31 1    
    59   30   32 1    
    60   30   92 1    
    61   31   93 1    
    62   31   94 1    
    63   31   95 1    
    64   32   33 am   BACKBONE|DICT|INTERRES
    65   32   96 1    
    66   33   34 2    
    67   33   35 1    
    68   35   36 1    
    69   35   37 1    
    70   35   97 1    
    71   36   98 1    
    72   36   99 1    
    73   36  100 1    
    74   37   38 am   BACKBONE|DICT|INTERRES
    75   37  101 1    
    76   38   39 2    
    77   38   40 1    
    78   40   41 1    
    79   40   42 1    
    80   40  102 1    
    81   41  103 1    
    82   41  104 1    
    83   41  105 1    
    84   42   43 am   BACKBONE|DICT|INTERRES
    85   42  106 1    
    86   43   44 2    
    87   43   45 1    
    88   45   46 1    
    89   45   49 1    
    90   45  107 1    
    91   46   47 1    
    92   46  108 1    
    93   46  109 1    
    94   47   48 1    
    95   48  110 1    
    96   48  111 1    
    97   49   50 am   BACKBONE|DICT|INTERRES
    98   49  112 1    
    99   50   51 2    
   100   50   52 1    
   101   52   53 1    
   102   52   54 1    
   103   52  113 1    
   104   53  114 1    
   105   53  115 1    
   106   53  116 1    
   107   54   55 am   BACKBONE|DICT|INTERRES
   108   54  117 1    
   109   55   56 2    
   110   55   57 1    
   111   57   58 1    
   112   57   59 1    
   113   57  118 1    
   114   58  119 1    
   115   58  120 1    
   116   58  121 1    
   117   59   60 am   BACKBONE|DICT|INTERRES
   118   59  122 1    
   119   60   61 2    
   120   60   62 1    
   121   62   63 1    
   122   62   64 1    
   123   62  123 1    
   124   63  124 1    
   125   63  125 1    
   126   63  126 1    
   127   64   65 am   BACKBONE|DICT|INTERRES
   128   64  127 1    
   129   65   66 2    
@<TRIPOS>SUBSTRUCTURE
     1 UNK         1 GROUP             0       ****    0 ROOT    
