@<TRIPOS>MOLECULE
3R135
127   129    1
SMALL
USER_CHARGES


@<TRIPOS>ATOM
      1 CA        -84.8966   25.3248  -73.4840 C.3       0 UNK        -0.1998 
      2 C         -83.3815   25.4488  -73.5423 C.2       0 UNK         0.4909 
      3 O         -82.7832   25.1488  -74.5746 O.2       0 UNK        -0.5240 
      4 N         -82.7583   25.8789  -72.4374 N.am      1 UNK        -0.4739 
      5 CA        -81.3079   26.0968  -72.3118 C.3       1 UNK         0.0864 
      6 C6        -80.9816   27.1824  -71.2559 C.3       11 UNK        -0.0881 
      7 S7        -81.7088   28.7979  -71.6970 S.3       11 UNK        -0.2682 
      8 C8        -80.4631   29.9623  -71.0604 C.3       11 UNK         0.0289 
      9 C9        -79.2285   30.0494  -71.9488 C.ar      11 UNK        -0.0687 
     10 C10       -79.2647   30.7936  -73.1326 C.ar      11 UNK        -0.0823 
     11 C11       -78.1182   30.9450  -73.9212 C.ar      11 UNK        -0.0830 
     12 C12       -76.9264   30.3340  -73.5107 C.ar      11 UNK        -0.1021 
     13 C13       -76.8796   29.5806  -72.3348 C.ar      11 UNK        -0.0753 
     14 C14       -78.0331   29.4388  -71.5590 C.ar      11 UNK        -0.0933 
     15 C15       -75.5741   28.9457  -71.8882 C.3       11 UNK         0.0166 
     16 S16       -74.5595   30.1372  -70.9610 S.3       11 UNK        -0.2615 
     17 C17       -73.1561   29.0878  -70.4529 C.3       11 UNK        -0.0865 
     18 CA        -71.8755   29.3216  -71.2969 C.3       10 UNK         0.0862 
     19 C         -70.6890   28.5075  -70.6991 C.2       10 UNK         0.5551 
     20 N         -70.2407   27.4240  -71.3238 N.am      10 UNK        -0.7319 
     21 O         -70.1695   28.8693  -69.6463 O.2       10 UNK        -0.5018 
     22 N         -72.1167   29.0768  -72.7270 N.am      10 UNK        -0.4509 
     23 C         -71.2760   29.3880  -73.7213 C.2       10 UNK         0.4899 
     24 O         -70.2649   30.0746  -73.5656 O.2       10 UNK        -0.4839 
     25 CA        -71.6136   28.8335  -75.1236 C.3       9 UNK         0.0222 
     26 CB        -70.3454   28.4840  -75.9292 C.3       9 UNK        -0.1966 
     27 N         -72.5430   27.6925  -75.1358 N.am      9 UNK        -0.4218 
     28 C         -72.4076   26.5145  -74.5031 C.2       9 UNK         0.5020 
     29 O         -71.4789   26.2408  -73.7409 O.2       9 UNK        -0.5274 
     30 CA        -73.5099   25.4731  -74.7489 C.3       8 UNK         0.0270 
     31 CB        -74.8062   25.8595  -74.0159 C.3       8 UNK        -0.1976 
     32 N         -73.7906   25.2904  -76.1716 N.am      8 UNK        -0.4313 
     33 C         -72.9444   24.7568  -77.0635 C.2       8 UNK         0.5041 
     34 O         -71.8378   24.2972  -76.7788 O.2       8 UNK        -0.5577 
     35 CA        -73.4129   24.7421  -78.5256 C.3       7 UNK         0.0284 
     36 CB        -74.3827   23.5755  -78.7798 C.3       7 UNK        -0.1958 
     37 N         -74.0470   26.0105  -78.8915 N.am      7 UNK        -0.4454 
     38 C         -73.3717   27.1175  -79.2314 C.2       7 UNK         0.5089 
     39 O         -72.1459   27.1650  -79.3374 O.2       7 UNK        -0.5125 
     40 CA        -74.1927   28.3899  -79.5133 C.3       6 UNK         0.0408 
     41 CB        -74.4287   28.5481  -81.0238 C.3       6 UNK        -0.1791 
     42 N         -75.4822   28.4351  -78.8182 N.am      6 UNK        -0.4762 
     43 C         -75.6277   28.5944  -77.4947 C.2       6 UNK         0.5007 
     44 O         -74.6855   28.6809  -76.7060 O.2       6 UNK        -0.5032 
     45 CA        -77.0757   28.5820  -76.9560 C.3       5 UNK         0.0783 
     46 C46       -77.8210   29.9157  -77.2218 C.3       11 UNK        -0.0857 
     47 S47       -77.0264   31.3925  -76.4997 S.3       11 UNK        -0.2512 
     48 C48       -78.1818   31.8411  -75.1583 C.3       11 UNK         0.0225 
     49 N         -77.8616   27.4472  -77.4621 N.am      5 UNK        -0.4615 
     50 C         -77.5052   26.1574  -77.4142 C.2       4 UNK         0.5053 
     51 O         -76.4078   25.7579  -77.0219 O.2       4 UNK        -0.5105 
     52 CA        -78.5343   25.1362  -77.9267 C.3       4 UNK         0.0263 
     53 CB        -78.2547   24.7887  -79.3977 C.3       4 UNK        -0.1981 
     54 N         -78.5184   23.9087  -77.1245 N.am      4 UNK        -0.4224 
     55 C         -78.8144   23.8657  -75.8185 C.2       3 UNK         0.4895 
     56 O         -79.2119   24.8442  -75.1791 O.2       3 UNK        -0.5091 
     57 CA        -78.6242   22.5144  -75.1117 C.3       3 UNK         0.0250 
     58 CB        -77.1330   22.1496  -74.9962 C.3       3 UNK        -0.1996 
     59 N         -79.1932   22.6248  -73.7733 N.am      3 UNK        -0.4254 
     60 C         -80.0286   21.7718  -73.1776 C.2       2 UNK         0.5004 
     61 O         -80.3028   20.6572  -73.6239 O.2       2 UNK        -0.5226 
     62 CA        -80.7134   22.2582  -71.8838 C.3       2 UNK         0.0269 
     63 CB        -79.8164   22.0304  -70.6508 C.3       2 UNK        -0.1926 
     64 N         -81.2119   23.6446  -71.9598 N.am      2 UNK        -0.4687 
     65 C         -80.5198   24.7939  -72.0411 C.2       1 UNK         0.5165 
     66 O         -79.2933   24.8489  -71.9422 O.2       1 UNK        -0.5079 
     67 H67       -85.3536   25.9631  -74.2397 H         1 UNK         0.0900 
     68 H68       -85.2930   25.6152  -72.5111 H         1 UNK         0.0900 
     69 H69       -85.1974   24.2960  -73.6798 H         1 UNK         0.0900 
     70 H70       -83.3043   26.1184  -71.6214 H         1 UNK         0.2959 
     71 H71       -80.9363   26.4585  -73.2742 H         1 UNK         0.1079 
     72 H72       -81.3470   26.8887  -70.2701 H         1 UNK         0.0837 
     73 H73       -79.9017   27.3024  -71.1575 H         1 UNK         0.0837 
     74 H74       -80.1910   29.6809  -70.0417 H         1 UNK         0.0685 
     75 H75       -80.9185   30.9510  -70.9869 H         1 UNK         0.0685 
     76 H76       -80.1865   31.2794  -73.4236 H         1 UNK         0.1434 
     77 H77       -76.0210   30.4615  -74.0881 H         1 UNK         0.1329 
     78 H78       -77.9921   28.8738  -70.6378 H         1 UNK         0.1335 
     79 H79       -75.0185   28.5964  -72.7584 H         1 UNK         0.0680 
     80 H80       -75.7736   28.0692  -71.2695 H         1 UNK         0.0680 
     81 H81       -72.9576   29.3092  -69.4022 H         1 UNK         0.1032 
     82 H82       -73.4490   28.0364  -70.4819 H         1 UNK         0.1032 
     83 H83       -71.6029   30.3742  -71.1981 H         1 UNK         0.0461 
     84 H84       -70.6705   27.1027  -72.1866 H         1 UNK         0.3453 
     85 H85       -69.4718   26.9089  -70.9264 H         1 UNK         0.3453 
     86 H86       -72.9185   28.5104  -72.9510 H         1 UNK         0.2984 
     87 H87       -72.1268   29.6403  -75.6485 H         1 UNK         0.0554 
     88 H88       -70.5977   28.1238  -76.9270 H         1 UNK         0.0847 
     89 H89       -69.7549   27.7122  -75.4343 H         1 UNK         0.0847 
     90 H90       -69.7032   29.3564  -76.0552 H         1 UNK         0.0847 
     91 H91       -73.3700   27.8374  -75.7139 H         1 UNK         0.3141 
     92 H92       -73.1630   24.5178  -74.3492 H         1 UNK         0.0743 
     93 H93       -74.6273   26.0023  -72.9495 H         1 UNK         0.0784 
     94 H94       -75.2356   26.7820  -74.4087 H         1 UNK         0.0784 
     95 H95       -75.5627   25.0813  -74.1148 H         1 UNK         0.0784 
     96 H96       -74.7129   25.5808  -76.4964 H         1 UNK         0.3213 
     97 H97       -72.5353   24.5911  -79.1586 H         1 UNK         0.0855 
     98 H98       -75.2705   23.6345  -78.1499 H         1 UNK         0.0814 
     99 H99       -73.9007   22.6203  -78.5676 H         1 UNK         0.0814 
    100 H100      -74.7081   23.5490  -79.8198 H         1 UNK         0.0814 
    101 H101      -75.0468   26.0772  -78.7577 H         1 UNK         0.3105 
    102 H102      -73.5992   29.2412  -79.1727 H         1 UNK         0.0547 
    103 H103      -75.0342   27.7351  -81.4265 H         1 UNK         0.0837 
    104 H104      -74.9314   29.4882  -81.2517 H         1 UNK         0.0837 
    105 H105      -73.4832   28.5495  -81.5681 H         1 UNK         0.0837 
    106 H106      -76.3124   28.3474  -79.3868 H         1 UNK         0.3020 
    107 H107      -77.0041   28.4480  -75.8742 H         1 UNK         0.1245 
    108 H108      -78.8398   29.8469  -76.8371 H         1 UNK         0.0781 
    109 H109      -77.9236   30.0853  -78.2952 H         1 UNK         0.0781 
    110 H110      -77.9546   32.8606  -74.8441 H         1 UNK         0.0836 
    111 H111      -79.1958   31.8674  -75.5608 H         1 UNK         0.0836 
    112 H112      -78.7790   27.6738  -77.8178 H         1 UNK         0.3022 
    113 H113      -79.5329   25.5720  -77.8515 H         1 UNK         0.0747 
    114 H114      -78.2833   25.6815  -80.0238 H         1 UNK         0.0793 
    115 H115      -79.0005   24.0973  -79.7904 H         1 UNK         0.0793 
    116 H116      -77.2732   24.3317  -79.5278 H         1 UNK         0.0793 
    117 H117      -78.1774   23.0738  -77.5777 H         1 UNK         0.3047 
    118 H118      -79.1510   21.7498  -75.6866 H         1 UNK         0.0822 
    119 H119      -76.6688   22.0518  -75.9781 H         1 UNK         0.0807 
    120 H120      -76.9995   21.1987  -74.4801 H         1 UNK         0.0807 
    121 H121      -76.5753   22.9079  -74.4459 H         1 UNK         0.0807 
    122 H122      -79.0772   23.5389  -73.3414 H         1 UNK         0.2946 
    123 H123      -81.6007   21.6354  -71.7559 H         1 UNK         0.1144 
    124 H124      -79.5669   20.9738  -70.5456 H         1 UNK         0.0793 
    125 H125      -80.3178   22.3380  -69.7332 H         1 UNK         0.0793 
    126 H126      -78.8751   22.5760  -70.7188 H         1 UNK         0.0793 
    127 H127      -82.2125   23.7278  -72.0762 H         1 UNK         0.2896 
@<TRIPOS>BOND
     1    1    2 1    
     2    1   67 1    
     3    1   68 1    
     4    1   69 1    
     5    2    3 2    
     6    2    4 am   BACKBONE|DICT|INTERRES
     7    4    5 1    
     8    4   70 1    
     9    5    6 1    
    10    5   65 1    
    11    5   71 1    
    12    6    7 1    
    13    6   72 1    
    14    6   73 1    
    15    7    8 1    
    16    8    9 1    
    17    8   74 1    
    18    8   75 1    
    19    9   10 ar   
    20    9   14 ar   
    21   10   11 ar   
    22   10   76 1    
    23   11   12 ar   
    24   11   48 1    
    25   12   13 ar   
    26   12   77 1    
    27   13   14 ar   
    28   13   15 1    
    29   14   78 1    
    30   15   16 1    
    31   15   79 1    
    32   15   80 1    
    33   16   17 1    
    34   17   18 1    
    35   17   81 1    
    36   17   82 1    
    37   18   19 1    
    38   18   22 1    
    39   18   83 1    
    40   19   20 am   BACKBONE|DICT|INTERRES
    41   19   21 2    
    42   20   84 1    
    43   20   85 1    
    44   22   23 am   BACKBONE|DICT|INTERRES
    45   22   86 1    
    46   23   24 2    
    47   23   25 1    
    48   25   26 1    
    49   25   27 1    
    50   25   87 1    
    51   26   88 1    
    52   26   89 1    
    53   26   90 1    
    54   27   28 am   BACKBONE|DICT|INTERRES
    55   27   91 1    
    56   28   29 2    
    57   28   30 1    
    58   30   31 1    
    59   30   32 1    
    60   30   92 1    
    61   31   93 1    
    62   31   94 1    
    63   31   95 1    
    64   32   33 am   BACKBONE|DICT|INTERRES
    65   32   96 1    
    66   33   34 2    
    67   33   35 1    
    68   35   36 1    
    69   35   37 1    
    70   35   97 1    
    71   36   98 1    
    72   36   99 1    
    73   36  100 1    
    74   37   38 am   BACKBONE|DICT|INTERRES
    75   37  101 1    
    76   38   39 2    
    77   38   40 1    
    78   40   41 1    
    79   40   42 1    
    80   40  102 1    
    81   41  103 1    
    82   41  104 1    
    83   41  105 1    
    84   42   43 am   BACKBONE|DICT|INTERRES
    85   42  106 1    
    86   43   44 2    
    87   43   45 1    
    88   45   46 1    
    89   45   49 1    
    90   45  107 1    
    91   46   47 1    
    92   46  108 1    
    93   46  109 1    
    94   47   48 1    
    95   48  110 1    
    96   48  111 1    
    97   49   50 am   BACKBONE|DICT|INTERRES
    98   49  112 1    
    99   50   51 2    
   100   50   52 1    
   101   52   53 1    
   102   52   54 1    
   103   52  113 1    
   104   53  114 1    
   105   53  115 1    
   106   53  116 1    
   107   54   55 am   BACKBONE|DICT|INTERRES
   108   54  117 1    
   109   55   56 2    
   110   55   57 1    
   111   57   58 1    
   112   57   59 1    
   113   57  118 1    
   114   58  119 1    
   115   58  120 1    
   116   58  121 1    
   117   59   60 am   BACKBONE|DICT|INTERRES
   118   59  122 1    
   119   60   61 2    
   120   60   62 1    
   121   62   63 1    
   122   62   64 1    
   123   62  123 1    
   124   63  124 1    
   125   63  125 1    
   126   63  126 1    
   127   64   65 am   BACKBONE|DICT|INTERRES
   128   64  127 1    
   129   65   66 2    
@<TRIPOS>SUBSTRUCTURE
     1 UNK         1 GROUP             0       ****    0 ROOT    
