@<TRIPOS>MOLECULE
3R135
127   129    1
SMALL
USER_CHARGES


@<TRIPOS>ATOM
      1 CA        -81.6874   21.8598  -68.6910 C.3       0 UNK        -0.1998 
      2 C         -81.6008   23.1733  -69.4538 C.2       0 UNK         0.4909 
      3 O         -82.4301   24.0586  -69.2425 O.2       0 UNK        -0.5240 
      4 N         -80.5996   23.3074  -70.3347 N.am      1 UNK        -0.4739 
      5 CA        -80.3784   24.4835  -71.1852 C.3       1 UNK         0.0864 
      6 C6        -78.9521   24.4497  -71.7992 C.3       11 UNK        -0.0881 
      7 S7        -78.5307   25.7800  -72.9775 S.3       11 UNK        -0.2682 
      8 C8        -78.7053   27.2674  -71.9439 C.3       11 UNK         0.0289 
      9 C9        -78.1606   28.4993  -72.6516 C.ar      11 UNK        -0.0687 
     10 C10       -78.7390   28.9394  -73.8455 C.ar      11 UNK        -0.0823 
     11 C11       -78.2274   30.0542  -74.5169 C.ar      11 UNK        -0.0830 
     12 C12       -77.1384   30.7423  -73.9727 C.ar      11 UNK        -0.1021 
     13 C13       -76.5671   30.3314  -72.7637 C.ar      11 UNK        -0.0753 
     14 C14       -77.0852   29.2081  -72.1090 C.ar      11 UNK        -0.0933 
     15 C15       -75.4127   31.1230  -72.1582 C.3       11 UNK         0.0166 
     16 S16       -74.0002   30.0596  -71.7307 S.3       11 UNK        -0.2615 
     17 C17       -72.6413   31.2723  -71.6176 C.3       11 UNK        -0.0865 
     18 CA        -71.9538   31.5317  -72.9844 C.3       10 UNK         0.0862 
     19 C         -70.7526   32.5016  -72.8205 C.2       10 UNK         0.5551 
     20 N         -70.9886   33.8023  -72.9238 N.am      10 UNK        -0.7319 
     21 O         -69.6245   32.0898  -72.5552 O.2       10 UNK        -0.5018 
     22 N         -71.5937   30.2743  -73.6521 N.am      10 UNK        -0.4509 
     23 C         -71.1888   30.1425  -74.9177 C.2       10 UNK         0.4899 
     24 O         -71.0260   31.0898  -75.6876 O.2       10 UNK        -0.4839 
     25 CA        -70.9645   28.7121  -75.4387 C.3       9 UNK         0.0222 
     26 CB        -69.5205   28.2395  -75.1831 C.3       9 UNK        -0.1966 
     27 N         -71.9542   27.7285  -74.9735 N.am      9 UNK        -0.4218 
     28 C         -72.1274   27.1964  -73.7533 C.2       9 UNK         0.5020 
     29 O         -71.4692   27.5178  -72.7631 O.2       9 UNK        -0.5274 
     30 CA        -73.2171   26.1155  -73.6119 C.3       8 UNK         0.0270 
     31 CB        -74.5719   26.7402  -73.2418 C.3       8 UNK        -0.1976 
     32 N         -73.3782   25.3019  -74.8188 N.am      8 UNK        -0.4313 
     33 C         -72.4576   24.4565  -75.3050 C.2       8 UNK         0.5041 
     34 O         -71.3818   24.2171  -74.7553 O.2       8 UNK        -0.5577 
     35 CA        -72.7869   23.7775  -76.6424 C.3       7 UNK         0.0284 
     36 CB        -73.6774   22.5435  -76.4247 C.3       7 UNK        -0.1958 
     37 N         -73.4422   24.7104  -77.5615 N.am      7 UNK        -0.4454 
     38 C         -72.7885   25.6072  -78.3138 C.2       7 UNK         0.5089 
     39 O         -71.5616   25.6916  -78.3684 O.2       7 UNK        -0.5125 
     40 CA        -73.6419   26.5833  -79.1439 C.3       6 UNK         0.0408 
     41 CB        -73.8819   26.0199  -80.5533 C.3       6 UNK        -0.1791 
     42 N         -74.9302   26.9058  -78.5246 N.am      6 UNK        -0.4762 
     43 C         -75.0794   27.6302  -77.4055 C.2       6 UNK         0.5007 
     44 O         -74.1397   28.1139  -76.7764 O.2       6 UNK        -0.5032 
     45 CA        -76.5184   27.8030  -76.8819 C.3       5 UNK         0.0783 
     46 C46       -77.1838   29.0411  -77.5362 C.3       11 UNK        -0.0857 
     47 S47       -78.9434   29.2440  -77.0893 S.3       11 UNK        -0.2512 
     48 C48       -78.8732   30.5379  -75.8093 C.3       11 UNK         0.0225 
     49 N         -77.3286   26.5889  -77.0343 N.am      5 UNK        -0.4615 
     50 C         -77.0597   25.3863  -76.5116 C.2       4 UNK         0.5053 
     51 O         -75.9962   25.1135  -75.9525 O.2       4 UNK        -0.5105 
     52 CA        -78.1696   24.3235  -76.6285 C.3       4 UNK         0.0263 
     53 CB        -77.8819   23.0714  -75.7797 C.3       4 UNK        -0.1981 
     54 N         -79.4722   24.8684  -76.2365 N.am      4 UNK        -0.4224 
     55 C         -80.3017   25.5534  -77.0350 C.2       3 UNK         0.4895 
     56 O         -80.0429   25.8029  -78.2135 O.2       3 UNK        -0.5091 
     57 CA        -81.6055   26.0862  -76.4057 C.3       3 UNK         0.0250 
     58 CB        -82.7245   26.2942  -77.4480 C.3       3 UNK        -0.1996 
     59 N         -82.0925   25.2909  -75.2701 N.am      3 UNK        -0.4254 
     60 C         -82.4670   24.0030  -75.2627 C.2       2 UNK         0.5004 
     61 O         -82.4380   23.2730  -76.2549 O.2       2 UNK        -0.5226 
     62 CA        -82.9293   23.4387  -73.9019 C.3       2 UNK         0.0269 
     63 CB        -83.4136   21.9795  -73.9985 C.3       2 UNK        -0.1926 
     64 N         -81.8851   23.5179  -72.8742 N.am      2 UNK        -0.4687 
     65 C         -81.4926   24.6346  -72.2437 C.2       1 UNK         0.5165 
     66 O         -81.9816   25.7444  -72.4644 O.2       1 UNK        -0.5079 
     67 H67       -82.6401   21.3712  -68.8933 H         1 UNK         0.0900 
     68 H68       -81.6191   22.0434  -67.6191 H         1 UNK         0.0900 
     69 H69       -80.8883   21.1727  -68.9686 H         1 UNK         0.0900 
     70 H70       -79.9439   22.5475  -70.4513 H         1 UNK         0.2959 
     71 H71       -80.4428   25.3623  -70.5399 H         1 UNK         0.1079 
     72 H72       -78.2101   24.4671  -70.9992 H         1 UNK         0.0837 
     73 H73       -78.7965   23.5043  -72.3218 H         1 UNK         0.0837 
     74 H74       -78.1897   27.1070  -70.9958 H         1 UNK         0.0685 
     75 H75       -79.7580   27.4285  -71.7085 H         1 UNK         0.0685 
     76 H76       -79.5810   28.4019  -74.2601 H         1 UNK         0.1434 
     77 H77       -76.7462   31.6122  -74.4819 H         1 UNK         0.1329 
     78 H78       -76.6438   28.8843  -71.1765 H         1 UNK         0.1335 
     79 H79       -75.7592   31.6387  -71.2617 H         1 UNK         0.0680 
     80 H80       -75.0777   31.8939  -72.8536 H         1 UNK         0.0680 
     81 H81       -71.9163   30.8879  -70.8973 H         1 UNK         0.1032 
     82 H82       -73.0235   32.2027  -71.1932 H         1 UNK         0.1032 
     83 H83       -72.6840   32.0203  -73.6327 H         1 UNK         0.0461 
     84 H84       -70.2250   34.4496  -72.8038 H         1 UNK         0.3453 
     85 H85       -71.9113   34.1512  -73.1319 H         1 UNK         0.3453 
     86 H86       -71.6681   29.4304  -73.0927 H         1 UNK         0.2984 
     87 H87       -71.1024   28.7540  -76.5205 H         1 UNK         0.0554 
     88 H88       -69.3479   27.2491  -75.6047 H         1 UNK         0.0847 
     89 H89       -69.2855   28.1979  -74.1192 H         1 UNK         0.0847 
     90 H90       -68.8032   28.9192  -75.6446 H         1 UNK         0.0847 
     91 H91       -72.6540   27.4936  -75.6721 H         1 UNK         0.3141 
     92 H92       -72.9183   25.4467  -72.8022 H         1 UNK         0.0743 
     93 H93       -75.3609   25.9893  -73.1918 H         1 UNK         0.0784 
     94 H94       -74.5224   27.2167  -72.2630 H         1 UNK         0.0784 
     95 H95       -74.8798   27.5008  -73.9601 H         1 UNK         0.0784 
     96 H96       -74.2742   25.3674  -75.2985 H         1 UNK         0.3213 
     97 H97       -71.8489   23.4398  -77.0893 H         1 UNK         0.0855 
     98 H98       -74.6127   22.7998  -75.9278 H         1 UNK         0.0814 
     99 H99       -73.1709   21.8076  -75.7989 H         1 UNK         0.0814 
    100 H100      -73.9192   22.0549  -77.3686 H         1 UNK         0.0814 
    101 H101      -74.4522   24.7507  -77.5266 H         1 UNK         0.3105 
    102 H102      -73.0756   27.5121  -79.2422 H         1 UNK         0.0547 
    103 H103      -72.9363   25.7957  -81.0493 H         1 UNK         0.0837 
    104 H104      -74.4623   25.0968  -80.5279 H         1 UNK         0.0837 
    105 H105      -74.4127   26.7347  -81.1824 H         1 UNK         0.0837 
    106 H106      -75.7595   26.5388  -78.9700 H         1 UNK         0.3020 
    107 H107      -76.4438   27.9914  -75.8084 H         1 UNK         0.1245 
    108 H108      -77.1381   28.9676  -78.6246 H         1 UNK         0.0781 
    109 H109      -76.6377   29.9492  -77.2731 H         1 UNK         0.0781 
    110 H110      -79.8902   30.8646  -75.5883 H         1 UNK         0.0836 
    111 H111      -78.3536   31.4099  -76.2094 H         1 UNK         0.0836 
    112 H112      -78.2243   26.7123  -77.4915 H         1 UNK         0.3022 
    113 H113      -78.2116   24.0134  -77.6746 H         1 UNK         0.0747 
    114 H114      -76.9780   22.5679  -76.1223 H         1 UNK         0.0793 
    115 H115      -77.7392   23.3196  -74.7274 H         1 UNK         0.0793 
    116 H116      -78.6960   22.3494  -75.8477 H         1 UNK         0.0793 
    117 H117      -79.7257   24.7632  -75.2647 H         1 UNK         0.3047 
    118 H118      -81.3535   27.0665  -75.9979 H         1 UNK         0.0822 
    119 H119      -82.4165   27.0026  -78.2182 H         1 UNK         0.0807 
    120 H120      -83.6275   26.6940  -76.9868 H         1 UNK         0.0807 
    121 H121      -82.9874   25.3625  -77.9501 H         1 UNK         0.0807 
    122 H122      -82.1160   25.7696  -74.3725 H         1 UNK         0.2946 
    123 H123      -83.7783   24.0469  -73.5803 H         1 UNK         0.1144 
    124 H124      -84.2207   21.8825  -74.7262 H         1 UNK         0.0793 
    125 H125      -83.7995   21.6251  -73.0425 H         1 UNK         0.0793 
    126 H126      -82.6126   21.3070  -74.3081 H         1 UNK         0.0793 
    127 H127      -81.4260   22.6513  -72.6339 H         1 UNK         0.2896 
@<TRIPOS>BOND
     1    1    2 1    
     2    1   67 1    
     3    1   68 1    
     4    1   69 1    
     5    2    3 2    
     6    2    4 am   BACKBONE|DICT|INTERRES
     7    4    5 1    
     8    4   70 1    
     9    5    6 1    
    10    5   65 1    
    11    5   71 1    
    12    6    7 1    
    13    6   72 1    
    14    6   73 1    
    15    7    8 1    
    16    8    9 1    
    17    8   74 1    
    18    8   75 1    
    19    9   10 ar   
    20    9   14 ar   
    21   10   11 ar   
    22   10   76 1    
    23   11   12 ar   
    24   11   48 1    
    25   12   13 ar   
    26   12   77 1    
    27   13   14 ar   
    28   13   15 1    
    29   14   78 1    
    30   15   16 1    
    31   15   79 1    
    32   15   80 1    
    33   16   17 1    
    34   17   18 1    
    35   17   81 1    
    36   17   82 1    
    37   18   19 1    
    38   18   22 1    
    39   18   83 1    
    40   19   20 am   BACKBONE|DICT|INTERRES
    41   19   21 2    
    42   20   84 1    
    43   20   85 1    
    44   22   23 am   BACKBONE|DICT|INTERRES
    45   22   86 1    
    46   23   24 2    
    47   23   25 1    
    48   25   26 1    
    49   25   27 1    
    50   25   87 1    
    51   26   88 1    
    52   26   89 1    
    53   26   90 1    
    54   27   28 am   BACKBONE|DICT|INTERRES
    55   27   91 1    
    56   28   29 2    
    57   28   30 1    
    58   30   31 1    
    59   30   32 1    
    60   30   92 1    
    61   31   93 1    
    62   31   94 1    
    63   31   95 1    
    64   32   33 am   BACKBONE|DICT|INTERRES
    65   32   96 1    
    66   33   34 2    
    67   33   35 1    
    68   35   36 1    
    69   35   37 1    
    70   35   97 1    
    71   36   98 1    
    72   36   99 1    
    73   36  100 1    
    74   37   38 am   BACKBONE|DICT|INTERRES
    75   37  101 1    
    76   38   39 2    
    77   38   40 1    
    78   40   41 1    
    79   40   42 1    
    80   40  102 1    
    81   41  103 1    
    82   41  104 1    
    83   41  105 1    
    84   42   43 am   BACKBONE|DICT|INTERRES
    85   42  106 1    
    86   43   44 2    
    87   43   45 1    
    88   45   46 1    
    89   45   49 1    
    90   45  107 1    
    91   46   47 1    
    92   46  108 1    
    93   46  109 1    
    94   47   48 1    
    95   48  110 1    
    96   48  111 1    
    97   49   50 am   BACKBONE|DICT|INTERRES
    98   49  112 1    
    99   50   51 2    
   100   50   52 1    
   101   52   53 1    
   102   52   54 1    
   103   52  113 1    
   104   53  114 1    
   105   53  115 1    
   106   53  116 1    
   107   54   55 am   BACKBONE|DICT|INTERRES
   108   54  117 1    
   109   55   56 2    
   110   55   57 1    
   111   57   58 1    
   112   57   59 1    
   113   57  118 1    
   114   58  119 1    
   115   58  120 1    
   116   58  121 1    
   117   59   60 am   BACKBONE|DICT|INTERRES
   118   59  122 1    
   119   60   61 2    
   120   60   62 1    
   121   62   63 1    
   122   62   64 1    
   123   62  123 1    
   124   63  124 1    
   125   63  125 1    
   126   63  126 1    
   127   64   65 am   BACKBONE|DICT|INTERRES
   128   64  127 1    
   129   65   66 2    
@<TRIPOS>SUBSTRUCTURE
     1 UNK         1 GROUP             0       ****    0 ROOT    
