@<TRIPOS>MOLECULE
3R135
127   129    1
SMALL
USER_CHARGES


@<TRIPOS>ATOM
      1 CA        -82.7195   24.9806  -71.9380 C.3       0 UNK        -0.1998 
      2 C         -82.3804   25.6775  -73.2463 C.2       0 UNK         0.4909 
      3 O         -83.1567   25.5993  -74.1997 O.2       0 UNK        -0.5240 
      4 N         -81.2229   26.3521  -73.3039 N.am      1 UNK        -0.4739 
      5 CA        -80.6995   27.0381  -74.4922 C.3       1 UNK         0.0864 
      6 C6        -79.3589   27.7588  -74.2068 C.3       11 UNK        -0.0881 
      7 S7        -79.5443   29.1514  -73.0433 S.3       11 UNK        -0.2682 
      8 C8        -78.7484   28.5226  -71.5286 C.3       11 UNK         0.0289 
      9 C9        -77.2478   28.3118  -71.6913 C.ar      11 UNK        -0.0687 
     10 C10       -76.7094   27.0226  -71.6419 C.ar      11 UNK        -0.0823 
     11 C11       -75.3320   26.8197  -71.7728 C.ar      11 UNK        -0.0830 
     12 C12       -74.4881   27.9227  -71.9334 C.ar      11 UNK        -0.1021 
     13 C13       -75.0109   29.2186  -71.9711 C.ar      11 UNK        -0.0753 
     14 C14       -76.3922   29.4062  -71.8550 C.ar      11 UNK        -0.0933 
     15 C15       -74.0845   30.4185  -72.1040 C.3       11 UNK         0.0166 
     16 S16       -73.7559   30.8185  -73.8458 S.3       11 UNK        -0.2615 
     17 C17       -72.9517   32.4495  -73.6756 C.3       11 UNK        -0.0865 
     18 CA        -71.7546   32.6416  -74.6521 C.3       10 UNK         0.0862 
     19 C         -71.2642   34.1219  -74.7233 C.2       10 UNK         0.5551 
     20 N         -69.9884   34.3810  -74.9840 N.am      10 UNK        -0.7319 
     21 O         -72.0530   35.0524  -74.5745 O.2       10 UNK        -0.5018 
     22 N         -70.6847   31.6434  -74.4597 N.am      10 UNK        -0.4509 
     23 C         -69.9006   31.5106  -73.3790 C.2       10 UNK         0.4899 
     24 O         -69.9680   32.2331  -72.3831 O.2       10 UNK        -0.4839 
     25 CA        -68.8660   30.3662  -73.4398 C.3       9 UNK         0.0222 
     26 CB        -68.1469   30.1245  -72.0945 C.3       9 UNK        -0.1966 
     27 N         -69.4442   29.1210  -73.9666 N.am      9 UNK        -0.4218 
     28 C         -70.4597   28.4270  -73.4327 C.2       9 UNK         0.5020 
     29 O         -70.9997   28.6937  -72.3586 O.2       9 UNK        -0.5274 
     30 CA        -71.0179   27.2803  -74.2756 C.3       8 UNK         0.0270 
     31 CB        -71.1493   25.9750  -73.4683 C.3       8 UNK        -0.1976 
     32 N         -72.3167   27.7279  -74.7663 N.am      8 UNK        -0.4313 
     33 C         -72.9383   27.2615  -75.8512 C.2       8 UNK         0.5041 
     34 O         -72.5227   26.3272  -76.5416 O.2       8 UNK        -0.5577 
     35 CA        -74.2082   28.0050  -76.2743 C.3       7 UNK         0.0284 
     36 CB        -73.8551   29.1640  -77.2293 C.3       7 UNK        -0.1958 
     37 N         -75.1114   27.0551  -76.9146 N.am      7 UNK        -0.4454 
     38 C         -76.3951   27.2726  -77.2136 C.2       7 UNK         0.5089 
     39 O         -76.9678   28.3495  -77.0486 O.2       7 UNK        -0.5125 
     40 CA        -77.2036   26.0750  -77.7382 C.3       6 UNK         0.0408 
     41 CB        -76.6896   25.5510  -79.0941 C.3       6 UNK        -0.1791 
     42 N         -77.3337   25.0208  -76.7242 N.am      6 UNK        -0.4762 
     43 C         -76.3757   24.2179  -76.2375 C.2       6 UNK         0.5007 
     44 O         -75.2599   24.1013  -76.7445 O.2       6 UNK        -0.5032 
     45 CA        -76.6983   23.4537  -74.9409 C.3       5 UNK         0.0783 
     46 C46       -76.4241   24.3343  -73.6948 C.3       11 UNK        -0.0857 
     47 S47       -74.6594   24.6355  -73.3555 S.3       11 UNK        -0.2512 
     48 C48       -74.7534   25.4121  -71.7104 C.3       11 UNK         0.0225 
     49 N         -78.0846   22.9736  -74.9120 N.am      5 UNK        -0.4615 
     50 C         -78.4500   21.8016  -74.3818 C.2       4 UNK         0.5053 
     51 O         -77.6479   20.9240  -74.0603 O.2       4 UNK        -0.5105 
     52 CA        -79.9413   21.5663  -74.0983 C.3       4 UNK         0.0263 
     53 CB        -80.2843   22.0374  -72.6736 C.3       4 UNK        -0.1981 
     54 N         -80.8572   22.2153  -75.0445 N.am      4 UNK        -0.4224 
     55 C         -81.9329   21.6042  -75.5685 C.2       3 UNK         0.4895 
     56 O         -82.1785   20.4070  -75.4107 O.2       3 UNK        -0.5091 
     57 CA        -82.9434   22.4459  -76.3716 C.3       3 UNK         0.0250 
     58 CB        -84.2523   22.6067  -75.5796 C.3       3 UNK        -0.1996 
     59 N         -82.4468   23.7713  -76.7406 N.am      3 UNK        -0.4254 
     60 C         -81.6392   24.0053  -77.7842 C.2       2 UNK         0.5004 
     61 O         -81.2635   23.1297  -78.5638 O.2       2 UNK        -0.5226 
     62 CA        -81.1459   25.4495  -77.9945 C.3       2 UNK         0.0269 
     63 CB        -81.9551   26.1357  -79.1066 C.3       2 UNK        -0.1926 
     64 N         -81.1665   26.2988  -76.7947 N.am      2 UNK        -0.4687 
     65 C         -80.5238   26.0380  -75.6489 C.2       1 UNK         0.5165 
     66 O         -79.8315   25.0323  -75.4710 O.2       1 UNK        -0.5079 
     67 H67       -82.8908   23.9190  -72.1138 H         1 UNK         0.0900 
     68 H68       -83.6275   25.4061  -71.5118 H         1 UNK         0.0900 
     69 H69       -81.9199   25.0781  -71.2039 H         1 UNK         0.0900 
     70 H70       -80.6282   26.3813  -72.4900 H         1 UNK         0.2959 
     71 H71       -81.4384   27.7849  -74.7908 H         1 UNK         0.1079 
     72 H72       -78.6107   27.0564  -73.8381 H         1 UNK         0.0837 
     73 H73       -78.9464   28.1749  -75.1282 H         1 UNK         0.0837 
     74 H74       -78.9173   29.2399  -70.7242 H         1 UNK         0.0685 
     75 H75       -79.2420   27.6004  -71.2194 H         1 UNK         0.0685 
     76 H76       -77.3631   26.1731  -71.4995 H         1 UNK         0.1434 
     77 H77       -73.4209   27.7742  -72.0157 H         1 UNK         0.1329 
     78 H78       -76.8039   30.4059  -71.8841 H         1 UNK         0.1335 
     79 H79       -74.5301   31.2845  -71.6119 H         1 UNK         0.0680 
     80 H80       -73.1400   30.2259  -71.5927 H         1 UNK         0.0680 
     81 H81       -72.6253   32.6019  -72.6458 H         1 UNK         0.1032 
     82 H82       -73.7226   33.2002  -73.8581 H         1 UNK         0.1032 
     83 H83       -72.1379   32.4486  -75.6548 H         1 UNK         0.0461 
     84 H84       -69.6796   35.3388  -75.0398 H         1 UNK         0.3453 
     85 H85       -69.3325   33.6291  -75.1205 H         1 UNK         0.3453 
     86 H86       -70.5391   31.0129  -75.2338 H         1 UNK         0.2984 
     87 H87       -68.1093   30.6805  -74.1602 H         1 UNK         0.0554 
     88 H88       -67.4142   29.3216  -72.1740 H         1 UNK         0.0847 
     89 H89       -68.8463   29.8629  -71.2998 H         1 UNK         0.0847 
     90 H90       -67.6126   31.0190  -71.7721 H         1 UNK         0.0847 
     91 H91       -69.0791   28.8163  -74.8591 H         1 UNK         0.3141 
     92 H92       -70.3550   27.1010  -75.1251 H         1 UNK         0.0743 
     93 H93       -71.8055   26.0949  -72.6069 H         1 UNK         0.0784 
     94 H94       -71.5494   25.1670  -74.0809 H         1 UNK         0.0784 
     95 H95       -70.1777   25.6497  -73.0952 H         1 UNK         0.0784 
     96 H96       -72.7129   28.5169  -74.2673 H         1 UNK         0.3213 
     97 H97       -74.7025   28.3966  -75.3823 H         1 UNK         0.0855 
     98 H98       -73.4243   28.7973  -78.1617 H         1 UNK         0.0814 
     99 H99       -73.1270   29.8378  -76.7760 H         1 UNK         0.0814 
    100 H100      -74.7301   29.7644  -77.4767 H         1 UNK         0.0814 
    101 H101      -74.7319   26.1178  -77.0285 H         1 UNK         0.3105 
    102 H102      -78.2125   26.4494  -77.9062 H         1 UNK         0.0547 
    103 H103      -76.7235   26.3387  -79.8476 H         1 UNK         0.0837 
    104 H104      -75.6587   25.2011  -79.0459 H         1 UNK         0.0837 
    105 H105      -77.3051   24.7284  -79.4577 H         1 UNK         0.0837 
    106 H106      -78.2216   25.0329  -76.2292 H         1 UNK         0.3020 
    107 H107      -76.0186   22.5983  -74.9179 H         1 UNK         0.1245 
    108 H108      -76.8424   23.8547  -72.8082 H         1 UNK         0.0781 
    109 H109      -76.9366   25.2923  -73.7889 H         1 UNK         0.0781 
    110 H110      -73.7523   25.4433  -71.2786 H         1 UNK         0.0836 
    111 H111      -75.3460   24.7858  -71.0419 H         1 UNK         0.0836 
    112 H112      -78.7986   23.6580  -75.1467 H         1 UNK         0.3022 
    113 H113      -80.0770   20.4831  -74.1308 H         1 UNK         0.0747 
    114 H114      -81.3069   21.7721  -72.4048 H         1 UNK         0.0793 
    115 H115      -79.6267   21.5737  -71.9369 H         1 UNK         0.0793 
    116 H116      -80.1795   23.1183  -72.5715 H         1 UNK         0.0793 
    117 H117      -80.7051   23.1977  -75.2413 H         1 UNK         0.3047 
    118 H118      -83.1719   21.8911  -77.2844 H         1 UNK         0.0822 
    119 H119      -84.9904   23.1792  -76.1416 H         1 UNK         0.0807 
    120 H120      -84.0895   23.1116  -74.6270 H         1 UNK         0.0807 
    121 H121      -84.6974   21.6355  -75.3591 H         1 UNK         0.0807 
    122 H122      -82.7042   24.5408  -76.1326 H         1 UNK         0.2946 
    123 H123      -80.1129   25.3668  -78.3322 H         1 UNK         0.1144 
    124 H124      -81.5430   27.1148  -79.3521 H         1 UNK         0.0793 
    125 H125      -82.9991   26.2707  -78.8210 H         1 UNK         0.0793 
    126 H126      -81.9421   25.5437  -80.0231 H         1 UNK         0.0793 
    127 H127      -81.7360   27.1315  -76.8513 H         1 UNK         0.2896 
@<TRIPOS>BOND
     1    1    2 1    
     2    1   67 1    
     3    1   68 1    
     4    1   69 1    
     5    2    3 2    
     6    2    4 am   BACKBONE|DICT|INTERRES
     7    4    5 1    
     8    4   70 1    
     9    5    6 1    
    10    5   65 1    
    11    5   71 1    
    12    6    7 1    
    13    6   72 1    
    14    6   73 1    
    15    7    8 1    
    16    8    9 1    
    17    8   74 1    
    18    8   75 1    
    19    9   10 ar   
    20    9   14 ar   
    21   10   11 ar   
    22   10   76 1    
    23   11   12 ar   
    24   11   48 1    
    25   12   13 ar   
    26   12   77 1    
    27   13   14 ar   
    28   13   15 1    
    29   14   78 1    
    30   15   16 1    
    31   15   79 1    
    32   15   80 1    
    33   16   17 1    
    34   17   18 1    
    35   17   81 1    
    36   17   82 1    
    37   18   19 1    
    38   18   22 1    
    39   18   83 1    
    40   19   20 am   BACKBONE|DICT|INTERRES
    41   19   21 2    
    42   20   84 1    
    43   20   85 1    
    44   22   23 am   BACKBONE|DICT|INTERRES
    45   22   86 1    
    46   23   24 2    
    47   23   25 1    
    48   25   26 1    
    49   25   27 1    
    50   25   87 1    
    51   26   88 1    
    52   26   89 1    
    53   26   90 1    
    54   27   28 am   BACKBONE|DICT|INTERRES
    55   27   91 1    
    56   28   29 2    
    57   28   30 1    
    58   30   31 1    
    59   30   32 1    
    60   30   92 1    
    61   31   93 1    
    62   31   94 1    
    63   31   95 1    
    64   32   33 am   BACKBONE|DICT|INTERRES
    65   32   96 1    
    66   33   34 2    
    67   33   35 1    
    68   35   36 1    
    69   35   37 1    
    70   35   97 1    
    71   36   98 1    
    72   36   99 1    
    73   36  100 1    
    74   37   38 am   BACKBONE|DICT|INTERRES
    75   37  101 1    
    76   38   39 2    
    77   38   40 1    
    78   40   41 1    
    79   40   42 1    
    80   40  102 1    
    81   41  103 1    
    82   41  104 1    
    83   41  105 1    
    84   42   43 am   BACKBONE|DICT|INTERRES
    85   42  106 1    
    86   43   44 2    
    87   43   45 1    
    88   45   46 1    
    89   45   49 1    
    90   45  107 1    
    91   46   47 1    
    92   46  108 1    
    93   46  109 1    
    94   47   48 1    
    95   48  110 1    
    96   48  111 1    
    97   49   50 am   BACKBONE|DICT|INTERRES
    98   49  112 1    
    99   50   51 2    
   100   50   52 1    
   101   52   53 1    
   102   52   54 1    
   103   52  113 1    
   104   53  114 1    
   105   53  115 1    
   106   53  116 1    
   107   54   55 am   BACKBONE|DICT|INTERRES
   108   54  117 1    
   109   55   56 2    
   110   55   57 1    
   111   57   58 1    
   112   57   59 1    
   113   57  118 1    
   114   58  119 1    
   115   58  120 1    
   116   58  121 1    
   117   59   60 am   BACKBONE|DICT|INTERRES
   118   59  122 1    
   119   60   61 2    
   120   60   62 1    
   121   62   63 1    
   122   62   64 1    
   123   62  123 1    
   124   63  124 1    
   125   63  125 1    
   126   63  126 1    
   127   64   65 am   BACKBONE|DICT|INTERRES
   128   64  127 1    
   129   65   66 2    
@<TRIPOS>SUBSTRUCTURE
     1 UNK         1 GROUP             0       ****    0 ROOT    
