@<TRIPOS>MOLECULE
3R135
127   129    1
SMALL
USER_CHARGES


@<TRIPOS>ATOM
      1 CA        -78.1795   31.8647  -74.5218 C.3       0 UNK        -0.1998 
      2 C         -78.9259   30.5485  -74.6770 C.2       0 UNK         0.4909 
      3 O         -79.8047   30.4503  -75.5333 O.2       0 UNK        -0.5240 
      4 N         -78.5766   29.5451  -73.8578 N.am      1 UNK        -0.4739 
      5 CA        -79.1814   28.2023  -73.8106 C.3       1 UNK         0.0864 
      6 C6        -80.6728   28.1965  -73.3562 C.3       11 UNK        -0.0881 
      7 S7        -81.0438   29.1853  -71.8686 S.3       11 UNK        -0.2682 
      8 C8        -80.5702   28.0501  -70.5240 C.3       11 UNK         0.0289 
      9 C9        -79.0631   28.0157  -70.3080 C.ar      11 UNK        -0.0687 
     10 C10       -78.3670   26.8033  -70.3277 C.ar      11 UNK        -0.0823 
     11 C11       -76.9834   26.7766  -70.1192 C.ar      11 UNK        -0.0830 
     12 C12       -76.2949   27.9751  -69.8979 C.ar      11 UNK        -0.1021 
     13 C13       -76.9819   29.1919  -69.8771 C.ar      11 UNK        -0.0753 
     14 C14       -78.3645   29.2026  -70.0698 C.ar      11 UNK        -0.0933 
     15 C15       -76.2515   30.5023  -69.6329 C.3       11 UNK         0.0166 
     16 S16       -76.0106   31.4229  -71.1838 S.3       11 UNK        -0.2615 
     17 C17       -74.3230   30.9115  -71.6390 C.3       11 UNK        -0.0865 
     18 CA        -73.8781   31.5302  -72.9891 C.3       10 UNK         0.0862 
     19 C         -72.3376   31.4161  -73.1591 C.2       10 UNK         0.5551 
     20 N         -71.5896   32.4054  -72.6908 N.am      10 UNK        -0.7319 
     21 O         -71.8166   30.4266  -73.6709 O.2       10 UNK        -0.5018 
     22 N         -74.5945   30.9143  -74.1128 N.am      10 UNK        -0.4509 
     23 C         -74.5881   31.3642  -75.3725 C.2       10 UNK         0.4899 
     24 O         -74.1544   32.4673  -75.7077 O.2       10 UNK        -0.4839 
     25 CA        -75.1104   30.3763  -76.4354 C.3       9 UNK         0.0222 
     26 CB        -75.2420   31.0095  -77.8319 C.3       9 UNK        -0.1966 
     27 N         -74.2272   29.2083  -76.5159 N.am      9 UNK        -0.4218 
     28 C         -74.2035   28.2117  -75.6235 C.2       9 UNK         0.5020 
     29 O         -75.0384   28.1043  -74.7217 O.2       9 UNK        -0.5274 
     30 CA        -73.0701   27.1831  -75.7613 C.3       8 UNK         0.0270 
     31 CB        -72.5453   26.7309  -74.3885 C.3       8 UNK        -0.1976 
     32 N         -73.5235   26.0252  -76.5336 N.am      8 UNK        -0.4313 
     33 C         -73.6067   26.0149  -77.8724 C.2       8 UNK         0.5041 
     34 O         -73.2439   26.9644  -78.5696 O.2       8 UNK        -0.5577 
     35 CA        -74.2314   24.7910  -78.5687 C.3       7 UNK         0.0284 
     36 CB        -73.4270   24.3329  -79.8046 C.3       7 UNK        -0.1958 
     37 N         -74.5637   23.6822  -77.6655 N.am      7 UNK        -0.4454 
     38 C         -73.7593   22.7414  -77.1533 C.2       7 UNK         0.5089 
     39 O         -72.5530   22.6572  -77.3877 O.2       7 UNK        -0.5125 
     40 CA        -74.4394   21.7258  -76.2076 C.3       6 UNK         0.0408 
     41 CB        -73.4232   20.8529  -75.4411 C.3       6 UNK        -0.1791 
     42 N         -75.3981   22.3354  -75.2720 N.am      6 UNK        -0.4762 
     43 C         -75.1408   23.3148  -74.3886 C.2       6 UNK         0.5007 
     44 O         -74.0427   23.8625  -74.3056 O.2       6 UNK        -0.5032 
     45 CA        -76.3028   23.7645  -73.4746 C.3       5 UNK         0.0783 
     46 C46       -76.1474   25.2073  -72.9281 C.3       11 UNK        -0.0857 
     47 S47       -75.0465   25.3082  -71.4767 S.3       11 UNK        -0.2512 
     48 C48       -76.2363   25.4492  -70.1066 C.3       11 UNK         0.0225 
     49 N         -77.5781   23.6182  -74.1751 N.am      5 UNK        -0.4615 
     50 C         -78.6827   23.0497  -73.6773 C.2       4 UNK         0.5053 
     51 O         -78.7301   22.5256  -72.5644 O.2       4 UNK        -0.5105 
     52 CA        -79.9607   23.0785  -74.5405 C.3       4 UNK         0.0263 
     53 CB        -81.0647   23.8880  -73.8408 C.3       4 UNK        -0.1981 
     54 N         -79.7437   23.6301  -75.8818 N.am      4 UNK        -0.4224 
     55 C         -79.2295   22.9384  -76.9099 C.2       3 UNK         0.4895 
     56 O         -78.9419   21.7428  -76.8501 O.2       3 UNK        -0.5091 
     57 CA        -78.9401   23.7107  -78.2125 C.3       3 UNK         0.0250 
     58 CB        -80.1148   23.5668  -79.1929 C.3       3 UNK        -0.1996 
     59 N         -78.6401   25.1351  -78.0235 N.am      3 UNK        -0.4254 
     60 C         -77.6493   25.6209  -77.2636 C.2       2 UNK         0.5004 
     61 O         -76.8732   24.9065  -76.6314 O.2       2 UNK        -0.5226 
     62 CA        -77.5073   27.1464  -77.1453 C.3       2 UNK         0.0269 
     63 CB        -78.3063   27.9417  -78.2009 C.3       2 UNK        -0.1926 
     64 N         -77.8384   27.6197  -75.7962 N.am      2 UNK        -0.4687 
     65 C         -78.9909   27.4222  -75.1343 C.2       1 UNK         0.5165 
     66 O         -79.8900   26.6826  -75.5442 O.2       1 UNK        -0.5079 
     67 H67       -78.8659   32.6471  -74.1995 H         1 UNK         0.0900 
     68 H68       -77.7433   32.1655  -75.4738 H         1 UNK         0.0900 
     69 H69       -77.3780   31.7962  -73.7881 H         1 UNK         0.0900 
     70 H70       -77.8580   29.7087  -73.1657 H         1 UNK         0.2959 
     71 H71       -78.6086   27.6465  -73.0688 H         1 UNK         0.1079 
     72 H72       -81.3062   28.5834  -74.1568 H         1 UNK         0.0837 
     73 H73       -81.0153   27.1767  -73.1788 H         1 UNK         0.0837 
     74 H74       -81.0442   28.3865  -69.6010 H         1 UNK         0.0685 
     75 H75       -80.9665   27.0543  -70.7284 H         1 UNK         0.0685 
     76 H76       -78.9029   25.8794  -70.4987 H         1 UNK         0.1434 
     77 H77       -75.2249   27.9568  -69.7414 H         1 UNK         0.1329 
     78 H78       -78.8984   30.1431  -70.0490 H         1 UNK         0.1335 
     79 H79       -76.8374   31.1184  -68.9491 H         1 UNK         0.0680 
     80 H80       -75.2938   30.3302  -69.1391 H         1 UNK         0.0680 
     81 H81       -74.2668   29.8213  -71.6722 H         1 UNK         0.1032 
     82 H82       -73.6591   31.2285  -70.8318 H         1 UNK         0.1032 
     83 H83       -74.1305   32.5929  -72.9826 H         1 UNK         0.0461 
     84 H84       -72.0062   33.2174  -72.2620 H         1 UNK         0.3453 
     85 H85       -70.5871   32.3442  -72.7774 H         1 UNK         0.3453 
     86 H86       -74.8993   29.9572  -73.9703 H         1 UNK         0.2984 
     87 H87       -76.1064   30.0529  -76.1270 H         1 UNK         0.0554 
     88 H88       -75.6565   30.3019  -78.5502 H         1 UNK         0.0847 
     89 H89       -74.2799   31.3517  -78.2154 H         1 UNK         0.0847 
     90 H90       -75.9089   31.8723  -77.8070 H         1 UNK         0.0847 
     91 H91       -73.5274   29.2140  -77.2461 H         1 UNK         0.3141 
     92 H92       -72.2337   27.6541  -76.2826 H         1 UNK         0.0743 
     93 H93       -73.3337   26.3055  -73.7691 H         1 UNK         0.0784 
     94 H94       -71.7584   25.9832  -74.4881 H         1 UNK         0.0784 
     95 H95       -72.1276   27.5749  -73.8382 H         1 UNK         0.0784 
     96 H96       -73.8488   25.2240  -76.0038 H         1 UNK         0.3213 
     97 H97       -75.1931   25.1418  -78.9441 H         1 UNK         0.0855 
     98 H98       -73.3816   25.1249  -80.5532 H         1 UNK         0.0814 
     99 H99       -73.8847   23.4658  -80.2804 H         1 UNK         0.0814 
    100 H100      -72.3982   24.0770  -79.5508 H         1 UNK         0.0814 
    101 H101      -75.5137   23.7211  -77.3048 H         1 UNK         0.3105 
    102 H102      -75.0217   21.0627  -76.8492 H         1 UNK         0.0547 
    103 H103      -72.7831   20.3003  -76.1299 H         1 UNK         0.0837 
    104 H104      -72.7725   21.4543  -74.8053 H         1 UNK         0.0837 
    105 H105      -73.9249   20.1198  -74.8099 H         1 UNK         0.0837 
    106 H106      -76.3380   21.9628  -75.2989 H         1 UNK         0.3020 
    107 H107      -76.2840   23.0731  -72.6291 H         1 UNK         0.1245 
    108 H108      -77.1209   25.6066  -72.6445 H         1 UNK         0.0781 
    109 H109      -75.7821   25.8791  -73.7047 H         1 UNK         0.0781 
    110 H110      -75.6973   25.3560  -69.1629 H         1 UNK         0.0836 
    111 H111      -76.9286   24.6065  -70.1470 H         1 UNK         0.0836 
    112 H112      -77.5944   24.0210  -75.1086 H         1 UNK         0.3022 
    113 H113      -80.3093   22.0480  -74.6363 H         1 UNK         0.0747 
    114 H114      -81.9784   23.9134  -74.4347 H         1 UNK         0.0793 
    115 H115      -81.3191   23.4504  -72.8745 H         1 UNK         0.0793 
    116 H116      -80.7524   24.9153  -73.6590 H         1 UNK         0.0793 
    117 H117      -79.9169   24.6244  -75.9958 H         1 UNK         0.3047 
    118 H118      -78.0588   23.2526  -78.6665 H         1 UNK         0.0822 
    119 H119      -79.8844   24.0167  -80.1588 H         1 UNK         0.0807 
    120 H120      -81.0208   24.0378  -78.8090 H         1 UNK         0.0807 
    121 H121      -80.3457   22.5161  -79.3748 H         1 UNK         0.0807 
    122 H122      -79.2566   25.7925  -78.4790 H         1 UNK         0.2946 
    123 H123      -76.4508   27.3602  -77.3067 H         1 UNK         0.1144 
    124 H124      -78.0448   27.6319  -79.2137 H         1 UNK         0.0793 
    125 H125      -78.0865   29.0072  -78.1283 H         1 UNK         0.0793 
    126 H126      -79.3841   27.8259  -78.0809 H         1 UNK         0.0793 
    127 H127      -77.1075   28.1452  -75.3303 H         1 UNK         0.2896 
@<TRIPOS>BOND
     1    1    2 1    
     2    1   67 1    
     3    1   68 1    
     4    1   69 1    
     5    2    3 2    
     6    2    4 am   BACKBONE|DICT|INTERRES
     7    4    5 1    
     8    4   70 1    
     9    5    6 1    
    10    5   65 1    
    11    5   71 1    
    12    6    7 1    
    13    6   72 1    
    14    6   73 1    
    15    7    8 1    
    16    8    9 1    
    17    8   74 1    
    18    8   75 1    
    19    9   10 ar   
    20    9   14 ar   
    21   10   11 ar   
    22   10   76 1    
    23   11   12 ar   
    24   11   48 1    
    25   12   13 ar   
    26   12   77 1    
    27   13   14 ar   
    28   13   15 1    
    29   14   78 1    
    30   15   16 1    
    31   15   79 1    
    32   15   80 1    
    33   16   17 1    
    34   17   18 1    
    35   17   81 1    
    36   17   82 1    
    37   18   19 1    
    38   18   22 1    
    39   18   83 1    
    40   19   20 am   BACKBONE|DICT|INTERRES
    41   19   21 2    
    42   20   84 1    
    43   20   85 1    
    44   22   23 am   BACKBONE|DICT|INTERRES
    45   22   86 1    
    46   23   24 2    
    47   23   25 1    
    48   25   26 1    
    49   25   27 1    
    50   25   87 1    
    51   26   88 1    
    52   26   89 1    
    53   26   90 1    
    54   27   28 am   BACKBONE|DICT|INTERRES
    55   27   91 1    
    56   28   29 2    
    57   28   30 1    
    58   30   31 1    
    59   30   32 1    
    60   30   92 1    
    61   31   93 1    
    62   31   94 1    
    63   31   95 1    
    64   32   33 am   BACKBONE|DICT|INTERRES
    65   32   96 1    
    66   33   34 2    
    67   33   35 1    
    68   35   36 1    
    69   35   37 1    
    70   35   97 1    
    71   36   98 1    
    72   36   99 1    
    73   36  100 1    
    74   37   38 am   BACKBONE|DICT|INTERRES
    75   37  101 1    
    76   38   39 2    
    77   38   40 1    
    78   40   41 1    
    79   40   42 1    
    80   40  102 1    
    81   41  103 1    
    82   41  104 1    
    83   41  105 1    
    84   42   43 am   BACKBONE|DICT|INTERRES
    85   42  106 1    
    86   43   44 2    
    87   43   45 1    
    88   45   46 1    
    89   45   49 1    
    90   45  107 1    
    91   46   47 1    
    92   46  108 1    
    93   46  109 1    
    94   47   48 1    
    95   48  110 1    
    96   48  111 1    
    97   49   50 am   BACKBONE|DICT|INTERRES
    98   49  112 1    
    99   50   51 2    
   100   50   52 1    
   101   52   53 1    
   102   52   54 1    
   103   52  113 1    
   104   53  114 1    
   105   53  115 1    
   106   53  116 1    
   107   54   55 am   BACKBONE|DICT|INTERRES
   108   54  117 1    
   109   55   56 2    
   110   55   57 1    
   111   57   58 1    
   112   57   59 1    
   113   57  118 1    
   114   58  119 1    
   115   58  120 1    
   116   58  121 1    
   117   59   60 am   BACKBONE|DICT|INTERRES
   118   59  122 1    
   119   60   61 2    
   120   60   62 1    
   121   62   63 1    
   122   62   64 1    
   123   62  123 1    
   124   63  124 1    
   125   63  125 1    
   126   63  126 1    
   127   64   65 am   BACKBONE|DICT|INTERRES
   128   64  127 1    
   129   65   66 2    
@<TRIPOS>SUBSTRUCTURE
     1 UNK         1 GROUP             0       ****    0 ROOT    
