@<TRIPOS>MOLECULE
3R135
127   129    1
SMALL
USER_CHARGES


@<TRIPOS>ATOM
      1 CA        -82.7851   25.1141  -72.5203 C.3       0 UNK        -0.1998 
      2 C         -83.2761   26.2961  -73.3418 C.2       0 UNK         0.4909 
      3 O         -84.4591   26.3709  -73.6741 O.2       0 UNK        -0.5240 
      4 N         -82.3700   27.2114  -73.6994 N.am      1 UNK        -0.4739 
      5 CA        -82.6077   28.4168  -74.5066 C.3       1 UNK         0.0864 
      6 C6        -81.6201   29.5599  -74.1287 C.3       11 UNK        -0.0881 
      7 S7        -79.8862   29.0149  -73.8869 S.3       11 UNK        -0.2682 
      8 C8        -79.7786   29.1398  -72.0749 C.3       11 UNK         0.0289 
      9 C9        -78.5591   28.4318  -71.5038 C.ar      11 UNK        -0.0687 
     10 C10       -78.7143   27.2562  -70.7621 C.ar      11 UNK        -0.0823 
     11 C11       -77.6138   26.6565  -70.1426 C.ar      11 UNK        -0.0830 
     12 C12       -76.3480   27.2322  -70.2826 C.ar      11 UNK        -0.1021 
     13 C13       -76.1763   28.3912  -71.0432 C.ar      11 UNK        -0.0753 
     14 C14       -77.2846   28.9869  -71.6536 C.ar      11 UNK        -0.0933 
     15 C15       -74.7972   29.0152  -71.1738 C.3       11 UNK         0.0166 
     16 S16       -73.7611   28.0715  -72.3281 S.3       11 UNK        -0.2615 
     17 C17       -72.3664   29.2264  -72.5468 C.3       11 UNK        -0.0865 
     18 CA        -72.6213   30.3037  -73.6350 C.3       10 UNK         0.0862 
     19 C         -71.3909   31.2513  -73.7570 C.2       10 UNK         0.5551 
     20 N         -70.6546   31.2541  -74.8627 N.am      10 UNK        -0.7319 
     21 O         -71.1023   31.9995  -72.8263 O.2       10 UNK        -0.5018 
     22 N         -73.0686   29.7227  -74.9123 N.am      10 UNK        -0.4509 
     23 C         -73.6654   30.4176  -75.8897 C.2       10 UNK         0.4899 
     24 O         -74.0207   31.5908  -75.7639 O.2       10 UNK        -0.4839 
     25 CA        -73.9060   29.6951  -77.2344 C.3       9 UNK         0.0222 
     26 CB        -73.8526   30.6717  -78.4280 C.3       9 UNK        -0.1966 
     27 N         -73.0305   28.5427  -77.4990 N.am      9 UNK        -0.4218 
     28 C         -71.6901   28.4999  -77.5051 C.2       9 UNK         0.5020 
     29 O         -70.9796   29.4536  -77.1799 O.2       9 UNK        -0.5274 
     30 CA        -71.0358   27.1673  -77.9360 C.3       8 UNK         0.0270 
     31 CB        -69.5334   27.1167  -77.5994 C.3       8 UNK        -0.1976 
     32 N         -71.6766   25.9703  -77.3779 N.am      8 UNK        -0.4313 
     33 C         -72.8567   25.4479  -77.7312 C.2       8 UNK         0.5041 
     34 O         -73.6075   25.9742  -78.5530 O.2       8 UNK        -0.5577 
     35 CA        -73.2986   24.1494  -77.0344 C.3       7 UNK         0.0284 
     36 CB        -72.6334   22.9157  -77.6752 C.3       7 UNK        -0.1958 
     37 N         -73.1398   24.1622  -75.5727 N.am      7 UNK        -0.4454 
     38 C         -72.0131   24.1853  -74.8430 C.2       7 UNK         0.5089 
     39 O         -70.8862   24.1883  -75.3407 O.2       7 UNK        -0.5125 
     40 CA        -72.1450   24.2753  -73.3095 C.3       6 UNK         0.0408 
     41 CB        -71.3121   25.4488  -72.7698 C.3       6 UNK        -0.1791 
     42 N         -73.5353   24.4235  -72.8628 N.am      6 UNK        -0.4762 
     43 C         -74.3488   23.3973  -72.5738 C.2       6 UNK         0.5007 
     44 O         -73.9892   22.2196  -72.5936 O.2       6 UNK        -0.5032 
     45 CA        -75.8194   23.7246  -72.2390 C.3       5 UNK         0.0783 
     46 C46       -76.0458   23.7166  -70.7093 C.3       11 UNK        -0.0857 
     47 S47       -77.8092   23.8895  -70.2714 S.3       11 UNK        -0.2512 
     48 C48       -77.8044   25.4161  -69.2822 C.3       11 UNK         0.0225 
     49 N         -76.3231   24.9477  -72.8848 N.am      5 UNK        -0.4615 
     50 C         -76.4626   25.0846  -74.2085 C.2       4 UNK         0.5053 
     51 O         -76.0256   24.2690  -75.0236 O.2       4 UNK        -0.5105 
     52 CA        -77.1975   26.3301  -74.7210 C.3       4 UNK         0.0263 
     53 CB        -76.2077   27.4183  -75.1623 C.3       4 UNK        -0.1981 
     54 N         -78.0149   25.9519  -75.8720 N.am      4 UNK        -0.4224 
     55 C         -79.2586   25.4715  -75.7869 C.2       3 UNK         0.4895 
     56 O         -79.9060   25.3953  -74.7382 O.2       3 UNK        -0.5091 
     57 CA        -79.8872   24.9783  -77.0940 C.3       3 UNK         0.0250 
     58 CB        -79.7531   23.4530  -77.2364 C.3       3 UNK        -0.1996 
     59 N         -81.2911   25.3546  -77.0527 N.am      3 UNK        -0.4254 
     60 C         -82.0259   25.7861  -78.0829 C.2       2 UNK         0.5004 
     61 O         -81.6678   25.7286  -79.2598 O.2       2 UNK        -0.5226 
     62 CA        -83.3792   26.4316  -77.7276 C.3       2 UNK         0.0269 
     63 CB        -84.5133   25.3981  -77.8176 C.3       2 UNK        -0.1926 
     64 N         -83.3797   27.0365  -76.3894 N.am      2 UNK        -0.4687 
     65 C         -82.6297   28.0853  -76.0173 C.2       1 UNK         0.5165 
     66 O         -81.9584   28.7435  -76.8140 O.2       1 UNK        -0.5079 
     67 H67       -83.0283   24.1796  -73.0249 H         1 UNK         0.0900 
     68 H68       -83.2653   25.1106  -71.5423 H         1 UNK         0.0900 
     69 H69       -81.7054   25.1449  -72.3709 H         1 UNK         0.0900 
     70 H70       -81.3959   27.0544  -73.4721 H         1 UNK         0.2959 
     71 H71       -83.6123   28.7831  -74.2826 H         1 UNK         0.1079 
     72 H72       -81.6358   30.3651  -74.8656 H         1 UNK         0.0837 
     73 H73       -81.9697   30.0304  -73.2086 H         1 UNK         0.0837 
     74 H74       -80.6875   28.7288  -71.6322 H         1 UNK         0.0685 
     75 H75       -79.7513   30.1931  -71.7920 H         1 UNK         0.0685 
     76 H76       -79.6975   26.8228  -70.6377 H         1 UNK         0.1434 
     77 H77       -75.4920   26.7880  -69.7934 H         1 UNK         0.1329 
     78 H78       -77.1626   29.8956  -72.2275 H         1 UNK         0.1335 
     79 H79       -74.8813   30.0469  -71.5181 H         1 UNK         0.0680 
     80 H80       -74.3122   29.0519  -70.1972 H         1 UNK         0.0680 
     81 H81       -72.1491   29.6968  -71.5856 H         1 UNK         0.1032 
     82 H82       -71.4777   28.6457  -72.7968 H         1 UNK         0.1032 
     83 H83       -73.4387   30.9306  -73.2741 H         1 UNK         0.0461 
     84 H84       -69.8639   31.8747  -74.9265 H         1 UNK         0.3453 
     85 H85       -70.8717   30.6339  -75.6379 H         1 UNK         0.3453 
     86 H86       -72.8050   28.7658  -75.0877 H         1 UNK         0.2984 
     87 H87       -74.9195   29.2961  -77.1821 H         1 UNK         0.0554 
     88 H88       -74.0569   30.1609  -79.3689 H         1 UNK         0.0847 
     89 H89       -72.8760   31.1501  -78.5112 H         1 UNK         0.0847 
     90 H90       -74.5960   31.4634  -78.3264 H         1 UNK         0.0847 
     91 H91       -73.4963   27.6929  -77.8128 H         1 UNK         0.3141 
     92 H92       -71.1313   27.1178  -79.0225 H         1 UNK         0.0743 
     93 H93       -68.9961   27.9442  -78.0649 H         1 UNK         0.0784 
     94 H94       -69.3611   27.1777  -76.5239 H         1 UNK         0.0784 
     95 H95       -69.0759   26.1955  -77.9607 H         1 UNK         0.0784 
     96 H96       -71.1542   25.4584  -76.6693 H         1 UNK         0.3213 
     97 H97       -74.3726   24.0595  -77.2063 H         1 UNK         0.0855 
     98 H98       -71.5480   22.9321  -77.5742 H         1 UNK         0.0814 
     99 H99       -72.8562   22.8666  -78.7419 H         1 UNK         0.0814 
    100 H100      -72.9981   21.9920  -77.2259 H         1 UNK         0.0814 
    101 H101      -74.0221   24.1793  -75.0698 H         1 UNK         0.3105 
    102 H102      -71.7262   23.3564  -72.8943 H         1 UNK         0.0547 
    103 H103      -71.5493   26.3750  -73.2906 H         1 UNK         0.0837 
    104 H104      -71.4744   25.6046  -71.7032 H         1 UNK         0.0837 
    105 H105      -70.2461   25.2666  -72.9117 H         1 UNK         0.0837 
    106 H106      -73.9060   25.3639  -72.8205 H         1 UNK         0.3020 
    107 H107      -76.4026   22.8984  -72.6536 H         1 UNK         0.1245 
    108 H108      -75.4540   24.4950  -70.2272 H         1 UNK         0.0781 
    109 H109      -75.7009   22.7735  -70.2803 H         1 UNK         0.0781 
    110 H110      -78.7522   25.4872  -68.7464 H         1 UNK         0.0836 
    111 H111      -77.0317   25.3549  -68.5141 H         1 UNK         0.0836 
    112 H112      -76.6974   25.6563  -72.2673 H         1 UNK         0.3022 
    113 H113      -77.8345   26.7307  -73.9294 H         1 UNK         0.0747 
    114 H114      -75.6827   27.8306  -74.3046 H         1 UNK         0.0793 
    115 H115      -76.7245   28.2501  -75.6415 H         1 UNK         0.0793 
    116 H116      -75.4601   27.0363  -75.8591 H         1 UNK         0.0793 
    117 H117      -77.5398   25.9218  -76.7623 H         1 UNK         0.3047 
    118 H118      -79.3967   25.4716  -77.9365 H         1 UNK         0.0822 
    119 H119      -78.7042   23.1537  -77.2539 H         1 UNK         0.0807 
    120 H120      -80.2085   23.1005  -78.1620 H         1 UNK         0.0807 
    121 H121      -80.2295   22.9281  -76.4072 H         1 UNK         0.0807 
    122 H122      -81.6537   25.4765  -76.1157 H         1 UNK         0.2946 
    123 H123      -83.5671   27.2214  -78.4586 H         1 UNK         0.1144 
    124 H124      -84.3837   24.5918  -77.0944 H         1 UNK         0.0793 
    125 H125      -84.5497   24.9448  -78.8093 H         1 UNK         0.0793 
    126 H126      -85.4849   25.8585  -77.6372 H         1 UNK         0.0793 
    127 H127      -83.9213   26.5720  -75.6678 H         1 UNK         0.2896 
@<TRIPOS>BOND
     1    1    2 1    
     2    1   67 1    
     3    1   68 1    
     4    1   69 1    
     5    2    3 2    
     6    2    4 am   BACKBONE|DICT|INTERRES
     7    4    5 1    
     8    4   70 1    
     9    5    6 1    
    10    5   65 1    
    11    5   71 1    
    12    6    7 1    
    13    6   72 1    
    14    6   73 1    
    15    7    8 1    
    16    8    9 1    
    17    8   74 1    
    18    8   75 1    
    19    9   10 ar   
    20    9   14 ar   
    21   10   11 ar   
    22   10   76 1    
    23   11   12 ar   
    24   11   48 1    
    25   12   13 ar   
    26   12   77 1    
    27   13   14 ar   
    28   13   15 1    
    29   14   78 1    
    30   15   16 1    
    31   15   79 1    
    32   15   80 1    
    33   16   17 1    
    34   17   18 1    
    35   17   81 1    
    36   17   82 1    
    37   18   19 1    
    38   18   22 1    
    39   18   83 1    
    40   19   20 am   BACKBONE|DICT|INTERRES
    41   19   21 2    
    42   20   84 1    
    43   20   85 1    
    44   22   23 am   BACKBONE|DICT|INTERRES
    45   22   86 1    
    46   23   24 2    
    47   23   25 1    
    48   25   26 1    
    49   25   27 1    
    50   25   87 1    
    51   26   88 1    
    52   26   89 1    
    53   26   90 1    
    54   27   28 am   BACKBONE|DICT|INTERRES
    55   27   91 1    
    56   28   29 2    
    57   28   30 1    
    58   30   31 1    
    59   30   32 1    
    60   30   92 1    
    61   31   93 1    
    62   31   94 1    
    63   31   95 1    
    64   32   33 am   BACKBONE|DICT|INTERRES
    65   32   96 1    
    66   33   34 2    
    67   33   35 1    
    68   35   36 1    
    69   35   37 1    
    70   35   97 1    
    71   36   98 1    
    72   36   99 1    
    73   36  100 1    
    74   37   38 am   BACKBONE|DICT|INTERRES
    75   37  101 1    
    76   38   39 2    
    77   38   40 1    
    78   40   41 1    
    79   40   42 1    
    80   40  102 1    
    81   41  103 1    
    82   41  104 1    
    83   41  105 1    
    84   42   43 am   BACKBONE|DICT|INTERRES
    85   42  106 1    
    86   43   44 2    
    87   43   45 1    
    88   45   46 1    
    89   45   49 1    
    90   45  107 1    
    91   46   47 1    
    92   46  108 1    
    93   46  109 1    
    94   47   48 1    
    95   48  110 1    
    96   48  111 1    
    97   49   50 am   BACKBONE|DICT|INTERRES
    98   49  112 1    
    99   50   51 2    
   100   50   52 1    
   101   52   53 1    
   102   52   54 1    
   103   52  113 1    
   104   53  114 1    
   105   53  115 1    
   106   53  116 1    
   107   54   55 am   BACKBONE|DICT|INTERRES
   108   54  117 1    
   109   55   56 2    
   110   55   57 1    
   111   57   58 1    
   112   57   59 1    
   113   57  118 1    
   114   58  119 1    
   115   58  120 1    
   116   58  121 1    
   117   59   60 am   BACKBONE|DICT|INTERRES
   118   59  122 1    
   119   60   61 2    
   120   60   62 1    
   121   62   63 1    
   122   62   64 1    
   123   62  123 1    
   124   63  124 1    
   125   63  125 1    
   126   63  126 1    
   127   64   65 am   BACKBONE|DICT|INTERRES
   128   64  127 1    
   129   65   66 2    
@<TRIPOS>SUBSTRUCTURE
     1 UNK         1 GROUP             0       ****    0 ROOT    
