@<TRIPOS>MOLECULE
3R135
127   129    1
SMALL
USER_CHARGES


@<TRIPOS>ATOM
      1 CA        -83.8428   25.5377  -70.6515 C.3       0 UNK        -0.1998 
      2 C         -82.7433   25.4871  -71.7017 C.2       0 UNK         0.4909 
      3 O         -83.0390   25.4657  -72.8966 O.2       0 UNK        -0.5240 
      4 N         -81.4810   25.4594  -71.2643 N.am      1 UNK        -0.4739 
      5 CA        -80.2950   25.4226  -72.1208 C.3       1 UNK         0.0864 
      6 C6        -79.8470   26.8323  -72.6073 C.3       11 UNK        -0.0881 
      7 S7        -79.7795   28.1282  -71.3165 S.3       11 UNK        -0.2682 
      8 C8        -78.0176   28.6089  -71.3674 C.3       11 UNK         0.0289 
      9 C9        -77.5661   29.3639  -72.6207 C.ar      11 UNK        -0.0687 
     10 C10       -78.4603   30.0140  -73.4831 C.ar      11 UNK        -0.0823 
     11 C11       -77.9949   30.7098  -74.6033 C.ar      11 UNK        -0.0830 
     12 C12       -76.6211   30.7824  -74.8470 C.ar      11 UNK        -0.1021 
     13 C13       -75.7179   30.1342  -74.0032 C.ar      11 UNK        -0.0753 
     14 C14       -76.1971   29.4248  -72.8982 C.ar      11 UNK        -0.0933 
     15 C15       -74.2305   30.1628  -74.3175 C.3       11 UNK         0.0166 
     16 S16       -73.3948   31.6445  -73.6676 S.3       11 UNK        -0.2615 
     17 C17       -73.3009   31.3040  -71.8743 C.3       11 UNK        -0.0865 
     18 CA        -71.8947   30.8178  -71.4090 C.3       10 UNK         0.0862 
     19 C         -71.7418   30.8299  -69.8552 C.2       10 UNK         0.5551 
     20 N         -70.9690   29.9289  -69.2606 N.am      10 UNK        -0.7319 
     21 O         -72.3020   31.6883  -69.1775 O.2       10 UNK        -0.5018 
     22 N         -71.4619   29.5639  -72.0600 N.am      10 UNK        -0.4509 
     23 C         -72.0569   28.3694  -71.9455 C.2       10 UNK         0.4899 
     24 O         -73.0640   28.1559  -71.2673 O.2       10 UNK        -0.4839 
     25 CA        -71.4010   27.2067  -72.7034 C.3       9 UNK         0.0222 
     26 CB        -70.5012   26.3918  -71.7599 C.3       9 UNK        -0.1966 
     27 N         -72.4353   26.3324  -73.2578 N.am      9 UNK        -0.4218 
     28 C         -72.9789   26.4768  -74.4723 C.2       9 UNK         0.5020 
     29 O         -72.6028   27.3110  -75.2996 O.2       9 UNK        -0.5274 
     30 CA        -74.1740   25.5590  -74.7898 C.3       8 UNK         0.0270 
     31 CB        -75.4812   26.1885  -74.2757 C.3       8 UNK        -0.1976 
     32 N         -74.3155   25.2943  -76.2223 N.am      8 UNK        -0.4313 
     33 C         -73.4387   24.6275  -76.9846 C.2       8 UNK         0.5041 
     34 O         -72.4180   24.0931  -76.5473 O.2       8 UNK        -0.5577 
     35 CA        -73.7521   24.5207  -78.4856 C.3       7 UNK         0.0284 
     36 CB        -74.6469   23.3004  -78.7603 C.3       7 UNK        -0.1958 
     37 N         -74.4175   25.7201  -79.0016 N.am      7 UNK        -0.4454 
     38 C         -73.8429   26.6474  -79.7792 C.2       7 UNK         0.5089 
     39 O         -72.6610   26.6122  -80.1244 O.2       7 UNK        -0.5125 
     40 CA        -74.7321   27.7950  -80.3006 C.3       6 UNK         0.0408 
     41 CB        -75.1157   27.5421  -81.7679 C.3       6 UNK        -0.1791 
     42 N         -75.9567   27.9916  -79.5203 N.am      6 UNK        -0.4762 
     43 C         -76.0162   28.6439  -78.3504 C.2       6 UNK         0.5007 
     44 O         -75.0512   29.2129  -77.8418 O.2       6 UNK        -0.5032 
     45 CA        -77.3749   28.6576  -77.6130 C.3       5 UNK         0.0783 
     46 C46       -78.1101   29.9962  -77.8738 C.3       11 UNK        -0.0857 
     47 S47       -79.5839   30.2055  -76.8165 S.3       11 UNK        -0.2512 
     48 C48       -78.9794   31.3742  -75.5543 C.3       11 UNK         0.0225 
     49 N         -78.2377   27.4991  -77.8986 N.am      5 UNK        -0.4615 
     50 C         -77.9021   26.2170  -77.7142 C.2       4 UNK         0.5053 
     51 O         -76.7683   25.8488  -77.4046 O.2       4 UNK        -0.5105 
     52 CA        -78.9931   25.1658  -77.9781 C.3       4 UNK         0.0263 
     53 CB        -79.0436   24.8242  -79.4763 C.3       4 UNK        -0.1981 
     54 N         -78.7618   23.9329  -77.2177 N.am      4 UNK        -0.4224 
     55 C         -78.7589   23.8555  -75.8804 C.2       3 UNK         0.4895 
     56 O         -79.0282   24.8036  -75.1391 O.2       3 UNK        -0.5091 
     57 CA        -78.3537   22.4991  -75.2757 C.3       3 UNK         0.0250 
     58 CB        -76.8295   22.3041  -75.3562 C.3       3 UNK        -0.1996 
     59 N         -78.7625   22.4098  -73.8736 N.am      3 UNK        -0.4254 
     60 C         -80.0157   22.1902  -73.4546 C.2       2 UNK         0.5004 
     61 O         -80.9440   21.8749  -74.1991 O.2       2 UNK        -0.5226 
     62 CA        -80.2886   22.3871  -71.9520 C.3       2 UNK         0.0269 
     63 CB        -80.2931   21.0298  -71.2306 C.3       2 UNK        -0.1926 
     64 N         -79.3096   23.2698  -71.2996 N.am      2 UNK        -0.4687 
     65 C         -79.1995   24.6067  -71.3975 C.2       1 UNK         0.5165 
     66 O         -78.2616   25.1911  -70.8600 O.2       1 UNK        -0.5079 
     67 H67       -83.4397   25.5500  -69.6389 H         1 UNK         0.0900 
     68 H68       -84.4937   24.6690  -70.7471 H         1 UNK         0.0900 
     69 H69       -84.4478   26.4339  -70.7858 H         1 UNK         0.0900 
     70 H70       -81.2884   25.4734  -70.2716 H         1 UNK         0.2959 
     71 H71       -80.5445   24.8715  -73.0270 H         1 UNK         0.1079 
     72 H72       -78.8869   26.7668  -73.1234 H         1 UNK         0.0837 
     73 H73       -80.5496   27.1799  -73.3661 H         1 UNK         0.0837 
     74 H74       -77.8147   29.2400  -70.5014 H         1 UNK         0.0685 
     75 H75       -77.4099   27.7117  -71.2410 H         1 UNK         0.0685 
     76 H76       -79.5239   29.9800  -73.2959 H         1 UNK         0.1434 
     77 H77       -76.2504   31.3227  -75.7073 H         1 UNK         0.1329 
     78 H78       -75.4994   28.9127  -72.2497 H         1 UNK         0.1335 
     79 H79       -73.7513   29.2697  -73.9265 H         1 UNK         0.0680 
     80 H80       -74.0857   30.1264  -75.3982 H         1 UNK         0.0680 
     81 H81       -74.0725   30.5972  -71.5746 H         1 UNK         0.1032 
     82 H82       -73.5599   32.2394  -71.3752 H         1 UNK         0.1032 
     83 H83       -71.1782   31.5676  -71.7461 H         1 UNK         0.0461 
     84 H84       -70.4933   29.2271  -69.8036 H         1 UNK         0.3453 
     85 H85       -70.8659   29.9504  -68.2582 H         1 UNK         0.3453 
     86 H86       -70.6307   29.6391  -72.6289 H         1 UNK         0.2984 
     87 H87       -70.7818   27.6040  -73.5108 H         1 UNK         0.0554 
     88 H88       -70.0330   25.5569  -72.2819 H         1 UNK         0.0847 
     89 H89       -71.0593   25.9876  -70.9141 H         1 UNK         0.0847 
     90 H90       -69.6983   27.0092  -71.3551 H         1 UNK         0.0847 
     91 H91       -72.8479   25.6708  -72.6157 H         1 UNK         0.3141 
     92 H92       -74.0217   24.6009  -74.2887 H         1 UNK         0.0743 
     93 H93       -75.6872   27.1389  -74.7700 H         1 UNK         0.0784 
     94 H94       -76.3370   25.5361  -74.4489 H         1 UNK         0.0784 
     95 H95       -75.4345   26.3813  -73.2031 H         1 UNK         0.0784 
     96 H96       -75.1623   25.6498  -76.6619 H         1 UNK         0.3213 
     97 H97       -72.8037   24.3631  -79.0039 H         1 UNK         0.0855 
     98 H98       -75.6369   23.4191  -78.3198 H         1 UNK         0.0814 
     99 H99       -74.2090   22.3905  -78.3476 H         1 UNK         0.0814 
    100 H100      -74.7766   23.1409  -79.8308 H         1 UNK         0.0814 
    101 H101      -75.3766   25.8635  -78.7009 H         1 UNK         0.3105 
    102 H102      -74.1399   28.7118  -80.2613 H         1 UNK         0.0547 
    103 H103      -74.2266   27.4251  -82.3892 H         1 UNK         0.0837 
    104 H104      -75.7118   26.6356  -81.8803 H         1 UNK         0.0837 
    105 H105      -75.6870   28.3746  -82.1788 H         1 UNK         0.0837 
    106 H106      -76.8000   27.5616  -79.8721 H         1 UNK         0.3020 
    107 H107      -77.1335   28.6012  -76.5493 H         1 UNK         0.1245 
    108 H108      -78.4302   30.0542  -78.9158 H         1 UNK         0.0781 
    109 H109      -77.4437   30.8474  -77.7237 H         1 UNK         0.0781 
    110 H110      -79.8328   31.7556  -74.9916 H         1 UNK         0.0836 
    111 H111      -78.5261   32.2414  -76.0370 H         1 UNK         0.0836 
    112 H112      -79.1869   27.7210  -78.1632 H         1 UNK         0.3022 
    113 H113      -79.9566   25.5778  -77.6706 H         1 UNK         0.0747 
    114 H114      -79.8296   24.1001  -79.6920 H         1 UNK         0.0793 
    115 H115      -79.2524   25.7111  -80.0761 H         1 UNK         0.0793 
    116 H116      -78.0981   24.4081  -79.8277 H         1 UNK         0.0793 
    117 H117      -78.5037   23.1168  -77.7523 H         1 UNK         0.3047 
    118 H118      -78.8452   21.7029  -75.8392 H         1 UNK         0.0822 
    119 H119      -76.5268   21.3549  -74.9137 H         1 UNK         0.0807 
    120 H120      -76.2903   23.1003  -74.8419 H         1 UNK         0.0807 
    121 H121      -76.4874   22.2970  -76.3907 H         1 UNK         0.0807 
    122 H122      -78.0784   22.6924  -73.1875 H         1 UNK         0.2946 
    123 H123      -81.2875   22.8146  -71.8533 H         1 UNK         0.1144 
    124 H124      -80.5534   21.1408  -70.1777 H         1 UNK         0.0793 
    125 H125      -79.3217   20.5369  -71.2869 H         1 UNK         0.0793 
    126 H126      -81.0268   20.3545  -71.6735 H         1 UNK         0.0793 
    127 H127      -78.6006   22.7936  -70.7608 H         1 UNK         0.2896 
@<TRIPOS>BOND
     1    1    2 1    
     2    1   67 1    
     3    1   68 1    
     4    1   69 1    
     5    2    3 2    
     6    2    4 am   BACKBONE|DICT|INTERRES
     7    4    5 1    
     8    4   70 1    
     9    5    6 1    
    10    5   65 1    
    11    5   71 1    
    12    6    7 1    
    13    6   72 1    
    14    6   73 1    
    15    7    8 1    
    16    8    9 1    
    17    8   74 1    
    18    8   75 1    
    19    9   10 ar   
    20    9   14 ar   
    21   10   11 ar   
    22   10   76 1    
    23   11   12 ar   
    24   11   48 1    
    25   12   13 ar   
    26   12   77 1    
    27   13   14 ar   
    28   13   15 1    
    29   14   78 1    
    30   15   16 1    
    31   15   79 1    
    32   15   80 1    
    33   16   17 1    
    34   17   18 1    
    35   17   81 1    
    36   17   82 1    
    37   18   19 1    
    38   18   22 1    
    39   18   83 1    
    40   19   20 am   BACKBONE|DICT|INTERRES
    41   19   21 2    
    42   20   84 1    
    43   20   85 1    
    44   22   23 am   BACKBONE|DICT|INTERRES
    45   22   86 1    
    46   23   24 2    
    47   23   25 1    
    48   25   26 1    
    49   25   27 1    
    50   25   87 1    
    51   26   88 1    
    52   26   89 1    
    53   26   90 1    
    54   27   28 am   BACKBONE|DICT|INTERRES
    55   27   91 1    
    56   28   29 2    
    57   28   30 1    
    58   30   31 1    
    59   30   32 1    
    60   30   92 1    
    61   31   93 1    
    62   31   94 1    
    63   31   95 1    
    64   32   33 am   BACKBONE|DICT|INTERRES
    65   32   96 1    
    66   33   34 2    
    67   33   35 1    
    68   35   36 1    
    69   35   37 1    
    70   35   97 1    
    71   36   98 1    
    72   36   99 1    
    73   36  100 1    
    74   37   38 am   BACKBONE|DICT|INTERRES
    75   37  101 1    
    76   38   39 2    
    77   38   40 1    
    78   40   41 1    
    79   40   42 1    
    80   40  102 1    
    81   41  103 1    
    82   41  104 1    
    83   41  105 1    
    84   42   43 am   BACKBONE|DICT|INTERRES
    85   42  106 1    
    86   43   44 2    
    87   43   45 1    
    88   45   46 1    
    89   45   49 1    
    90   45  107 1    
    91   46   47 1    
    92   46  108 1    
    93   46  109 1    
    94   47   48 1    
    95   48  110 1    
    96   48  111 1    
    97   49   50 am   BACKBONE|DICT|INTERRES
    98   49  112 1    
    99   50   51 2    
   100   50   52 1    
   101   52   53 1    
   102   52   54 1    
   103   52  113 1    
   104   53  114 1    
   105   53  115 1    
   106   53  116 1    
   107   54   55 am   BACKBONE|DICT|INTERRES
   108   54  117 1    
   109   55   56 2    
   110   55   57 1    
   111   57   58 1    
   112   57   59 1    
   113   57  118 1    
   114   58  119 1    
   115   58  120 1    
   116   58  121 1    
   117   59   60 am   BACKBONE|DICT|INTERRES
   118   59  122 1    
   119   60   61 2    
   120   60   62 1    
   121   62   63 1    
   122   62   64 1    
   123   62  123 1    
   124   63  124 1    
   125   63  125 1    
   126   63  126 1    
   127   64   65 am   BACKBONE|DICT|INTERRES
   128   64  127 1    
   129   65   66 2    
@<TRIPOS>SUBSTRUCTURE
     1 UNK         1 GROUP             0       ****    0 ROOT    
