@<TRIPOS>MOLECULE
3R135
127   129    1
SMALL
USER_CHARGES


@<TRIPOS>ATOM
      1 CA        -82.9406   26.8842  -69.5346 C.3       0 UNK        -0.1998 
      2 C         -83.2752   26.9036  -71.0184 C.2       0 UNK         0.4909 
      3 O         -84.3077   26.3677  -71.4217 O.2       0 UNK        -0.5240 
      4 N         -82.4086   27.5190  -71.8330 N.am      1 UNK        -0.4739 
      5 CA        -82.5579   27.6263  -73.2903 C.3       1 UNK         0.0864 
      6 C6        -81.6345   28.7160  -73.8853 C.3       11 UNK        -0.0881 
      7 S7        -82.0181   30.4015  -73.2892 S.3       11 UNK        -0.2682 
      8 C8        -80.9602   30.6050  -71.8125 C.3       11 UNK         0.0289 
      9 C9        -79.5150   30.1817  -72.0417 C.ar      11 UNK        -0.0687 
     10 C10       -78.9587   29.1415  -71.2929 C.ar      11 UNK        -0.0823 
     11 C11       -77.6424   28.7241  -71.5109 C.ar      11 UNK        -0.0830 
     12 C12       -76.8786   29.3672  -72.4957 C.ar      11 UNK        -0.1021 
     13 C13       -77.4181   30.4230  -73.2421 C.ar      11 UNK        -0.0753 
     14 C14       -78.7356   30.8248  -73.0052 C.ar      11 UNK        -0.0933 
     15 C15       -76.6092   31.1262  -74.3263 C.3       11 UNK         0.0166 
     16 S16       -75.0194   31.7821  -73.7228 S.3       11 UNK        -0.2615 
     17 C17       -73.8568   30.5783  -74.4468 C.3       11 UNK        -0.0865 
     18 CA        -72.5752   30.3737  -73.5995 C.3       10 UNK         0.0862 
     19 C         -72.8431   29.5188  -72.3309 C.2       10 UNK         0.5551 
     20 N         -73.0653   28.2194  -72.4804 N.am      10 UNK        -0.7319 
     21 O         -72.8323   30.0312  -71.2145 O.2       10 UNK        -0.5018 
     22 N         -71.5033   29.8214  -74.4355 N.am      10 UNK        -0.4509 
     23 C         -70.2257   29.6478  -74.0818 C.2       10 UNK         0.4899 
     24 O         -69.7497   30.0323  -73.0124 O.2       10 UNK        -0.4839 
     25 CA        -69.3407   28.9036  -75.1062 C.3       9 UNK         0.0222 
     26 CB        -67.8673   28.8187  -74.6647 C.3       9 UNK        -0.1966 
     27 N         -69.8330   27.5485  -75.3854 N.am      9 UNK        -0.4218 
     28 C         -70.9278   27.2474  -76.0973 C.2       9 UNK         0.5020 
     29 O         -71.6276   28.1024  -76.6476 O.2       9 UNK        -0.5274 
     30 CA        -71.3090   25.7576  -76.1717 C.3       8 UNK         0.0270 
     31 CB        -71.5212   25.1570  -74.7687 C.3       8 UNK        -0.1976 
     32 N         -72.5320   25.5690  -76.9532 N.am      8 UNK        -0.4313 
     33 C         -72.5832   25.4880  -78.2889 C.2       8 UNK         0.5041 
     34 O         -71.5833   25.4647  -79.0097 O.2       8 UNK        -0.5577 
     35 CA        -73.9741   25.3980  -78.9446 C.3       7 UNK         0.0284 
     36 CB        -74.2789   23.9440  -79.3410 C.3       7 UNK        -0.1958 
     37 N         -75.0592   25.9026  -78.0980 N.am      7 UNK        -0.4454 
     38 C         -75.3026   27.1976  -77.8519 C.2       7 UNK         0.5089 
     39 O         -74.6785   28.1226  -78.3714 O.2       7 UNK        -0.5125 
     40 CA        -76.4266   27.5197  -76.8480 C.3       6 UNK         0.0408 
     41 CB        -77.7833   27.6292  -77.5598 C.3       6 UNK        -0.1791 
     42 N         -76.5301   26.5515  -75.7531 N.am      6 UNK        -0.4762 
     43 C         -75.5795   26.3380  -74.8309 C.2       6 UNK         0.5007 
     44 O         -74.5112   26.9494  -74.7918 O.2       6 UNK        -0.5032 
     45 CA        -75.8456   25.2065  -73.8216 C.3       5 UNK         0.0783 
     46 C46       -76.7524   25.6639  -72.6525 C.3       11 UNK        -0.0857 
     47 S47       -75.7997   26.5642  -71.3887 S.3       11 UNK        -0.2512 
     48 C48       -77.0756   27.6158  -70.6220 C.3       11 UNK         0.0225 
     49 N         -76.3843   24.0281  -74.5032 N.am      5 UNK        -0.4615 
     50 C         -75.6477   23.1823  -75.2375 C.2       4 UNK         0.5053 
     51 O         -74.4286   23.2769  -75.3686 O.2       4 UNK        -0.5105 
     52 CA        -76.3918   22.0486  -75.9654 C.3       4 UNK         0.0263 
     53 CB        -76.4515   20.7926  -75.0818 C.3       4 UNK        -0.1981 
     54 N         -77.7479   22.4172  -76.3781 N.am      4 UNK        -0.4224 
     55 C         -78.0355   23.3601  -77.2867 C.2       3 UNK         0.4895 
     56 O         -77.1852   23.9921  -77.9098 O.2       3 UNK        -0.5091 
     57 CA        -79.5211   23.6957  -77.4928 C.3       3 UNK         0.0250 
     58 CB        -80.1395   22.7761  -78.5575 C.3       3 UNK        -0.1996 
     59 N         -80.3132   23.6278  -76.2598 N.am      3 UNK        -0.4254 
     60 C         -80.0932   24.3758  -75.1697 C.2       2 UNK         0.5004 
     61 O         -79.1622   25.1796  -75.0608 O.2       2 UNK        -0.5226 
     62 CA        -81.0368   24.1474  -73.9793 C.3       2 UNK         0.0269 
     63 CB        -80.3371   23.3130  -72.8941 C.3       2 UNK        -0.1926 
     64 N         -81.4715   25.4184  -73.4023 N.am      2 UNK        -0.4687 
     65 C         -82.3020   26.2826  -74.0045 C.2       1 UNK         0.5165 
     66 O         -82.8557   26.0562  -75.0818 O.2       1 UNK        -0.5079 
     67 H67       -82.0067   27.4028  -69.3186 H         1 UNK         0.0900 
     68 H68       -82.8466   25.8565  -69.1849 H         1 UNK         0.0900 
     69 H69       -83.7347   27.3665  -68.9653 H         1 UNK         0.0900 
     70 H70       -81.5839   27.9523  -71.4482 H         1 UNK         0.2959 
     71 H71       -83.5930   27.9039  -73.5032 H         1 UNK         0.1079 
     72 H72       -81.7476   28.7448  -74.9711 H         1 UNK         0.0837 
     73 H73       -80.5849   28.4731  -73.7149 H         1 UNK         0.0837 
     74 H74       -80.9768   31.6545  -71.5155 H         1 UNK         0.0685 
     75 H75       -81.4022   30.0528  -70.9824 H         1 UNK         0.0685 
     76 H76       -79.5492   28.6580  -70.5270 H         1 UNK         0.1434 
     77 H77       -75.8582   29.0600  -72.6742 H         1 UNK         0.1329 
     78 H78       -79.1681   31.6304  -73.5829 H         1 UNK         0.1335 
     79 H79       -76.4554   30.4436  -75.1613 H         1 UNK         0.0680 
     80 H80       -77.1739   31.9661  -74.7338 H         1 UNK         0.0680 
     81 H81       -73.5933   30.9584  -75.4354 H         1 UNK         0.1032 
     82 H82       -74.3553   29.6238  -74.6251 H         1 UNK         0.1032 
     83 H83       -72.2281   31.3545  -73.2682 H         1 UNK         0.0461 
     84 H84       -73.2527   27.6600  -71.6643 H         1 UNK         0.3453 
     85 H85       -73.1834   27.8172  -73.4012 H         1 UNK         0.3453 
     86 H86       -71.7869   29.4024  -75.3182 H         1 UNK         0.2984 
     87 H87       -69.3727   29.4782  -76.0344 H         1 UNK         0.0554 
     88 H88       -67.2491   28.3486  -75.4297 H         1 UNK         0.0847 
     89 H89       -67.7527   28.2484  -73.7420 H         1 UNK         0.0847 
     90 H90       -67.4552   29.8129  -74.4862 H         1 UNK         0.0847 
     91 H91       -69.3268   26.7937  -74.9449 H         1 UNK         0.3141 
     92 H92       -70.4889   25.2236  -76.6561 H         1 UNK         0.0743 
     93 H93       -72.2684   25.7078  -74.1979 H         1 UNK         0.0784 
     94 H94       -71.8500   24.1193  -74.8301 H         1 UNK         0.0784 
     95 H95       -70.5996   25.1615  -74.1863 H         1 UNK         0.0784 
     96 H96       -73.4026   25.6481  -76.4449 H         1 UNK         0.3213 
     97 H97       -73.9438   26.0003  -79.8551 H         1 UNK         0.0855 
     98 H98       -74.3460   23.2955  -78.4664 H         1 UNK         0.0814 
     99 H99       -73.4982   23.5416  -79.9879 H         1 UNK         0.0814 
    100 H100      -75.2200   23.8703  -79.8862 H         1 UNK         0.0814 
    101 H101      -75.7029   25.2111  -77.7220 H         1 UNK         0.3105 
    102 H102      -76.1973   28.4895  -76.4045 H         1 UNK         0.0547 
    103 H103      -77.7519   28.3880  -78.3427 H         1 UNK         0.0837 
    104 H104      -78.0679   26.6877  -78.0299 H         1 UNK         0.0837 
    105 H105      -78.5751   27.9109  -76.8653 H         1 UNK         0.0837 
    106 H106      -77.3915   26.0172  -75.6895 H         1 UNK         0.3020 
    107 H107      -74.8766   24.9181  -73.4057 H         1 UNK         0.1245 
    108 H108      -77.1914   24.7980  -72.1551 H         1 UNK         0.0781 
    109 H109      -77.5917   26.2674  -73.0048 H         1 UNK         0.0781 
    110 H110      -76.6435   28.0821  -69.7357 H         1 UNK         0.0836 
    111 H111      -77.8777   26.9671  -70.2662 H         1 UNK         0.0836 
    112 H112      -77.3907   23.9332  -74.5043 H         1 UNK         0.3022 
    113 H113      -75.8224   21.8076  -76.8657 H         1 UNK         0.0747 
    114 H114      -76.9013   19.9538  -75.6134 H         1 UNK         0.0793 
    115 H115      -75.4505   20.4818  -74.7788 H         1 UNK         0.0793 
    116 H116      -77.0286   20.9639  -74.1721 H         1 UNK         0.0793 
    117 H117      -78.5124   21.9444  -75.9187 H         1 UNK         0.3047 
    118 H118      -79.5745   24.7232  -77.8583 H         1 UNK         0.0822 
    119 H119      -81.1650   23.0668  -78.7862 H         1 UNK         0.0807 
    120 H120      -80.1484   21.7332  -78.2380 H         1 UNK         0.0807 
    121 H121      -79.5758   22.8263  -79.4903 H         1 UNK         0.0807 
    122 H122      -81.0949   22.9879  -76.2633 H         1 UNK         0.2946 
    123 H123      -81.9228   23.6067  -74.3203 H         1 UNK         0.1144 
    124 H124      -81.0070   23.1089  -72.0586 H         1 UNK         0.0793 
    125 H125      -79.4555   23.8192  -72.4996 H         1 UNK         0.0793 
    126 H126      -80.0116   22.3494  -73.2885 H         1 UNK         0.0793 
    127 H127      -81.0472   25.6933  -72.5294 H         1 UNK         0.2896 
@<TRIPOS>BOND
     1    1    2 1    
     2    1   67 1    
     3    1   68 1    
     4    1   69 1    
     5    2    3 2    
     6    2    4 am   BACKBONE|DICT|INTERRES
     7    4    5 1    
     8    4   70 1    
     9    5    6 1    
    10    5   65 1    
    11    5   71 1    
    12    6    7 1    
    13    6   72 1    
    14    6   73 1    
    15    7    8 1    
    16    8    9 1    
    17    8   74 1    
    18    8   75 1    
    19    9   10 ar   
    20    9   14 ar   
    21   10   11 ar   
    22   10   76 1    
    23   11   12 ar   
    24   11   48 1    
    25   12   13 ar   
    26   12   77 1    
    27   13   14 ar   
    28   13   15 1    
    29   14   78 1    
    30   15   16 1    
    31   15   79 1    
    32   15   80 1    
    33   16   17 1    
    34   17   18 1    
    35   17   81 1    
    36   17   82 1    
    37   18   19 1    
    38   18   22 1    
    39   18   83 1    
    40   19   20 am   BACKBONE|DICT|INTERRES
    41   19   21 2    
    42   20   84 1    
    43   20   85 1    
    44   22   23 am   BACKBONE|DICT|INTERRES
    45   22   86 1    
    46   23   24 2    
    47   23   25 1    
    48   25   26 1    
    49   25   27 1    
    50   25   87 1    
    51   26   88 1    
    52   26   89 1    
    53   26   90 1    
    54   27   28 am   BACKBONE|DICT|INTERRES
    55   27   91 1    
    56   28   29 2    
    57   28   30 1    
    58   30   31 1    
    59   30   32 1    
    60   30   92 1    
    61   31   93 1    
    62   31   94 1    
    63   31   95 1    
    64   32   33 am   BACKBONE|DICT|INTERRES
    65   32   96 1    
    66   33   34 2    
    67   33   35 1    
    68   35   36 1    
    69   35   37 1    
    70   35   97 1    
    71   36   98 1    
    72   36   99 1    
    73   36  100 1    
    74   37   38 am   BACKBONE|DICT|INTERRES
    75   37  101 1    
    76   38   39 2    
    77   38   40 1    
    78   40   41 1    
    79   40   42 1    
    80   40  102 1    
    81   41  103 1    
    82   41  104 1    
    83   41  105 1    
    84   42   43 am   BACKBONE|DICT|INTERRES
    85   42  106 1    
    86   43   44 2    
    87   43   45 1    
    88   45   46 1    
    89   45   49 1    
    90   45  107 1    
    91   46   47 1    
    92   46  108 1    
    93   46  109 1    
    94   47   48 1    
    95   48  110 1    
    96   48  111 1    
    97   49   50 am   BACKBONE|DICT|INTERRES
    98   49  112 1    
    99   50   51 2    
   100   50   52 1    
   101   52   53 1    
   102   52   54 1    
   103   52  113 1    
   104   53  114 1    
   105   53  115 1    
   106   53  116 1    
   107   54   55 am   BACKBONE|DICT|INTERRES
   108   54  117 1    
   109   55   56 2    
   110   55   57 1    
   111   57   58 1    
   112   57   59 1    
   113   57  118 1    
   114   58  119 1    
   115   58  120 1    
   116   58  121 1    
   117   59   60 am   BACKBONE|DICT|INTERRES
   118   59  122 1    
   119   60   61 2    
   120   60   62 1    
   121   62   63 1    
   122   62   64 1    
   123   62  123 1    
   124   63  124 1    
   125   63  125 1    
   126   63  126 1    
   127   64   65 am   BACKBONE|DICT|INTERRES
   128   64  127 1    
   129   65   66 2    
@<TRIPOS>SUBSTRUCTURE
     1 UNK         1 GROUP             0       ****    0 ROOT    
