@<TRIPOS>MOLECULE
3R135
127   129    1
SMALL
USER_CHARGES


@<TRIPOS>ATOM
      1 CA        -76.3946   23.5183  -73.6172 C.3       0 UNK        -0.1998 
      2 C         -77.8330   23.3833  -73.1483 C.2       0 UNK         0.4909 
      3 O         -78.3866   22.2834  -73.1717 O.2       0 UNK        -0.5240 
      4 N         -78.4345   24.4982  -72.7144 N.am      1 UNK        -0.4739 
      5 CA        -79.7923   24.5950  -72.1655 C.3       1 UNK         0.0864 
      6 C6        -80.0826   26.0168  -71.6239 C.3       11 UNK        -0.0881 
      7 S7        -79.0217   26.4044  -70.1920 S.3       11 UNK        -0.2682 
      8 C8        -79.3090   28.1900  -69.9859 C.3       11 UNK         0.0289 
      9 C9        -78.5262   29.0240  -70.9910 C.ar      11 UNK        -0.0687 
     10 C10       -79.1943   29.7884  -71.9525 C.ar      11 UNK        -0.0823 
     11 C11       -78.4757   30.5861  -72.8486 C.ar      11 UNK        -0.0830 
     12 C12       -77.0789   30.6038  -72.7892 C.ar      11 UNK        -0.1021 
     13 C13       -76.3999   29.8431  -71.8340 C.ar      11 UNK        -0.0753 
     14 C14       -77.1293   29.0599  -70.9344 C.ar      11 UNK        -0.0933 
     15 C15       -74.8801   29.8471  -71.7890 C.3       11 UNK         0.0166 
     16 S16       -74.2031   31.4635  -71.3077 S.3       11 UNK        -0.2615 
     17 C17       -72.4527   31.0340  -71.0123 C.3       11 UNK        -0.0865 
     18 CA        -71.5426   31.2731  -72.2454 C.3       10 UNK         0.0862 
     19 C         -70.0467   31.1729  -71.8359 C.2       10 UNK         0.5551 
     20 N         -69.3994   32.2988  -71.5684 N.am      10 UNK        -0.7319 
     21 O         -69.4879   30.0852  -71.7104 O.2       10 UNK        -0.5018 
     22 N         -71.8852   30.3661  -73.3525 N.am      10 UNK        -0.4509 
     23 C         -71.3770   30.4263  -74.5898 C.2       10 UNK         0.4899 
     24 O         -70.6001   31.3083  -74.9589 O.2       10 UNK        -0.4839 
     25 CA        -71.8359   29.3647  -75.6125 C.3       9 UNK         0.0222 
     26 CB        -70.6606   28.8308  -76.4580 C.3       9 UNK        -0.1966 
     27 N         -72.6363   28.2564  -75.0710 N.am      9 UNK        -0.4218 
     28 C         -72.2500   27.2791  -74.2355 C.2       9 UNK         0.5020 
     29 O         -71.1408   27.2199  -73.7065 O.2       9 UNK        -0.5274 
     30 CA        -73.2756   26.1685  -73.9535 C.3       8 UNK         0.0270 
     31 CB        -74.3195   26.6189  -72.9198 C.3       8 UNK        -0.1976 
     32 N         -73.9472   25.7433  -75.1829 N.am      8 UNK        -0.4313 
     33 C         -73.5044   24.7670  -75.9879 C.2       8 UNK         0.5041 
     34 O         -72.5364   24.0510  -75.7288 O.2       8 UNK        -0.5577 
     35 CA        -74.2547   24.5531  -77.3148 C.3       7 UNK         0.0284 
     36 CB        -75.2927   23.4269  -77.1928 C.3       7 UNK        -0.1958 
     37 N         -74.9049   25.7746  -77.7959 N.am      7 UNK        -0.4454 
     38 C         -74.2433   26.7849  -78.3800 C.2       7 UNK         0.5089 
     39 O         -73.0391   26.7543  -78.6327 O.2       7 UNK        -0.5125 
     40 CA        -75.0422   28.0514  -78.7369 C.3       6 UNK         0.0408 
     41 CB        -75.4254   28.0378  -80.2252 C.3       6 UNK        -0.1791 
     42 N         -76.2501   28.2561  -77.9332 N.am      6 UNK        -0.4762 
     43 C         -76.2789   28.4717  -76.6099 C.2       6 UNK         0.5007 
     44 O         -75.2789   28.4697  -75.8919 O.2       6 UNK        -0.5032 
     45 CA        -77.6692   28.6761  -75.9809 C.3       5 UNK         0.0783 
     46 C46       -78.0993   30.1569  -76.1210 C.3       11 UNK        -0.0857 
     47 S47       -79.7092   30.4943  -75.3298 S.3       11 UNK        -0.2512 
     48 C48       -79.2118   31.4479  -73.8632 C.3       11 UNK         0.0225 
     49 N         -78.6803   27.7683  -76.5353 N.am      5 UNK        -0.4615 
     50 C         -78.6224   26.4316  -76.5565 C.2       4 UNK         0.5053 
     51 O         -77.6581   25.7785  -76.1518 O.2       4 UNK        -0.5105 
     52 CA        -79.8654   25.7426  -77.1367 C.3       4 UNK         0.0263 
     53 CB        -80.0187   26.0022  -78.6512 C.3       4 UNK        -0.1981 
     54 N         -79.9311   24.3182  -76.7971 N.am      4 UNK        -0.4224 
     55 C         -79.2978   23.2736  -77.3543 C.2       3 UNK         0.4895 
     56 O         -78.5585   23.3567  -78.3355 O.2       3 UNK        -0.5091 
     57 CA        -79.5351   21.8828  -76.7236 C.3       3 UNK         0.0250 
     58 CB        -78.2093   21.1433  -76.4745 C.3       3 UNK        -0.1996 
     59 N         -80.2981   21.9363  -75.4710 N.am      3 UNK        -0.4254 
     60 C         -81.6360   22.0045  -75.3914 C.2       2 UNK         0.5004 
     61 O         -82.3816   21.9205  -76.3673 O.2       2 UNK        -0.5226 
     62 CA        -82.2514   22.2543  -74.0008 C.3       2 UNK         0.0269 
     63 CB        -82.7422   20.9341  -73.3851 C.3       2 UNK        -0.1926 
     64 N         -81.3391   22.9146  -73.0602 N.am      2 UNK        -0.4687 
     65 C         -80.8446   24.1533  -73.2020 C.2       1 UNK         0.5165 
     66 O         -81.1483   24.9064  -74.1287 O.2       1 UNK        -0.5079 
     67 H67       -76.1135   22.6856  -74.2596 H         1 UNK         0.0900 
     68 H68       -75.7197   23.5207  -72.7622 H         1 UNK         0.0900 
     69 H69       -76.2566   24.4419  -74.1773 H         1 UNK         0.0900 
     70 H70       -77.9239   25.3689  -72.7341 H         1 UNK         0.2959 
     71 H71       -79.8494   23.9025  -71.3226 H         1 UNK         0.1079 
     72 H72       -81.1228   26.1054  -71.3040 H         1 UNK         0.0837 
     73 H73       -79.9322   26.7667  -72.4035 H         1 UNK         0.0837 
     74 H74       -79.0030   28.4777  -68.9791 H         1 UNK         0.0685 
     75 H75       -80.3789   28.3954  -70.0492 H         1 UNK         0.0685 
     76 H76       -80.2749   29.7741  -71.9978 H         1 UNK         0.1434 
     77 H77       -76.5143   31.2171  -73.4780 H         1 UNK         0.1329 
     78 H78       -76.6129   28.4701  -70.1894 H         1 UNK         0.1335 
     79 H79       -74.5223   29.0890  -71.0914 H         1 UNK         0.0680 
     80 H80       -74.4986   29.5840  -72.7751 H         1 UNK         0.0680 
     81 H81       -72.3694   30.0035  -70.6619 H         1 UNK         0.1032 
     82 H82       -72.1201   31.6536  -70.1767 H         1 UNK         0.1032 
     83 H83       -71.7232   32.2890  -72.6032 H         1 UNK         0.0461 
     84 H84       -69.8529   33.1949  -71.6586 H         1 UNK         0.3453 
     85 H85       -68.4333   32.2535  -71.2837 H         1 UNK         0.3453 
     86 H86       -72.4824   29.5880  -73.1259 H         1 UNK         0.2984 
     87 H87       -72.5073   29.8904  -76.2930 H         1 UNK         0.0554 
     88 H88       -70.1628   29.6386  -76.9955 H         1 UNK         0.0847 
     89 H89       -71.0026   28.1126  -77.2033 H         1 UNK         0.0847 
     90 H90       -69.9072   28.3411  -75.8404 H         1 UNK         0.0847 
     91 H91       -73.6042   28.2477  -75.3939 H         1 UNK         0.3141 
     92 H92       -72.7326   25.3239  -73.5231 H         1 UNK         0.0743 
     93 H93       -73.8352   27.0389  -72.0380 H         1 UNK         0.0784 
     94 H94       -75.0001   27.3676  -73.3247 H         1 UNK         0.0784 
     95 H95       -74.9217   25.7809  -72.5746 H         1 UNK         0.0784 
     96 H96       -74.7287   26.3043  -75.4962 H         1 UNK         0.3213 
     97 H97       -73.5144   24.2400  -78.0547 H         1 UNK         0.0855 
     98 H98       -76.1119   23.6986  -76.5292 H         1 UNK         0.0814 
     99 H99       -74.8407   22.5147  -76.8010 H         1 UNK         0.0814 
    100 H100      -75.7242   23.1824  -78.1635 H         1 UNK         0.0814 
    101 H101      -75.8941   25.8757  -77.6018 H         1 UNK         0.3105 
    102 H102      -74.3846   28.9057  -78.5623 H         1 UNK         0.0547 
    103 H103      -74.5426   27.9163  -80.8547 H         1 UNK         0.0837 
    104 H104      -76.1069   27.2189  -80.4595 H         1 UNK         0.0837 
    105 H105      -75.9044   28.9710  -80.5219 H         1 UNK         0.0837 
    106 H106      -77.1297   28.2491  -78.4296 H         1 UNK         0.3020 
    107 H107      -77.5738   28.4418  -74.9180 H         1 UNK         0.1245 
    108 H108      -78.1866   30.4318  -77.1741 H         1 UNK         0.0781 
    109 H109      -77.3418   30.8228  -75.7043 H         1 UNK         0.0781 
    110 H110      -80.1047   31.8716  -73.4010 H         1 UNK         0.0836 
    111 H111      -78.5994   32.2983  -74.1675 H         1 UNK         0.0836 
    112 H112      -79.5209   28.2186  -76.8675 H         1 UNK         0.3022 
    113 H113      -80.7289   26.1861  -76.6381 H         1 UNK         0.0747 
    114 H114      -80.8606   25.4480  -79.0662 H         1 UNK         0.0793 
    115 H115      -79.1239   25.7208  -79.2072 H         1 UNK         0.0793 
    116 H116      -80.1999   27.0583  -78.8528 H         1 UNK         0.0793 
    117 H117      -80.4665   24.1348  -75.9567 H         1 UNK         0.3047 
    118 H118      -80.1025   21.3025  -77.4543 H         1 UNK         0.0822 
    119 H119      -78.3799   20.1512  -76.0563 H         1 UNK         0.0807 
    120 H120      -77.5679   21.6910  -75.7868 H         1 UNK         0.0807 
    121 H121      -77.6516   21.0106  -77.4026 H         1 UNK         0.0807 
    122 H122      -79.7550   22.0128  -74.6149 H         1 UNK         0.2946 
    123 H123      -83.1136   22.9096  -74.1449 H         1 UNK         0.1144 
    124 H124      -83.4453   20.4305  -74.0503 H         1 UNK         0.0793 
    125 H125      -83.2589   21.1039  -72.4402 H         1 UNK         0.0793 
    126 H126      -81.9179   20.2442  -73.1995 H         1 UNK         0.0793 
    127 H127      -80.9927   22.3446  -72.3009 H         1 UNK         0.2896 
@<TRIPOS>BOND
     1    1    2 1    
     2    1   67 1    
     3    1   68 1    
     4    1   69 1    
     5    2    3 2    
     6    2    4 am   BACKBONE|DICT|INTERRES
     7    4    5 1    
     8    4   70 1    
     9    5    6 1    
    10    5   65 1    
    11    5   71 1    
    12    6    7 1    
    13    6   72 1    
    14    6   73 1    
    15    7    8 1    
    16    8    9 1    
    17    8   74 1    
    18    8   75 1    
    19    9   10 ar   
    20    9   14 ar   
    21   10   11 ar   
    22   10   76 1    
    23   11   12 ar   
    24   11   48 1    
    25   12   13 ar   
    26   12   77 1    
    27   13   14 ar   
    28   13   15 1    
    29   14   78 1    
    30   15   16 1    
    31   15   79 1    
    32   15   80 1    
    33   16   17 1    
    34   17   18 1    
    35   17   81 1    
    36   17   82 1    
    37   18   19 1    
    38   18   22 1    
    39   18   83 1    
    40   19   20 am   BACKBONE|DICT|INTERRES
    41   19   21 2    
    42   20   84 1    
    43   20   85 1    
    44   22   23 am   BACKBONE|DICT|INTERRES
    45   22   86 1    
    46   23   24 2    
    47   23   25 1    
    48   25   26 1    
    49   25   27 1    
    50   25   87 1    
    51   26   88 1    
    52   26   89 1    
    53   26   90 1    
    54   27   28 am   BACKBONE|DICT|INTERRES
    55   27   91 1    
    56   28   29 2    
    57   28   30 1    
    58   30   31 1    
    59   30   32 1    
    60   30   92 1    
    61   31   93 1    
    62   31   94 1    
    63   31   95 1    
    64   32   33 am   BACKBONE|DICT|INTERRES
    65   32   96 1    
    66   33   34 2    
    67   33   35 1    
    68   35   36 1    
    69   35   37 1    
    70   35   97 1    
    71   36   98 1    
    72   36   99 1    
    73   36  100 1    
    74   37   38 am   BACKBONE|DICT|INTERRES
    75   37  101 1    
    76   38   39 2    
    77   38   40 1    
    78   40   41 1    
    79   40   42 1    
    80   40  102 1    
    81   41  103 1    
    82   41  104 1    
    83   41  105 1    
    84   42   43 am   BACKBONE|DICT|INTERRES
    85   42  106 1    
    86   43   44 2    
    87   43   45 1    
    88   45   46 1    
    89   45   49 1    
    90   45  107 1    
    91   46   47 1    
    92   46  108 1    
    93   46  109 1    
    94   47   48 1    
    95   48  110 1    
    96   48  111 1    
    97   49   50 am   BACKBONE|DICT|INTERRES
    98   49  112 1    
    99   50   51 2    
   100   50   52 1    
   101   52   53 1    
   102   52   54 1    
   103   52  113 1    
   104   53  114 1    
   105   53  115 1    
   106   53  116 1    
   107   54   55 am   BACKBONE|DICT|INTERRES
   108   54  117 1    
   109   55   56 2    
   110   55   57 1    
   111   57   58 1    
   112   57   59 1    
   113   57  118 1    
   114   58  119 1    
   115   58  120 1    
   116   58  121 1    
   117   59   60 am   BACKBONE|DICT|INTERRES
   118   59  122 1    
   119   60   61 2    
   120   60   62 1    
   121   62   63 1    
   122   62   64 1    
   123   62  123 1    
   124   63  124 1    
   125   63  125 1    
   126   63  126 1    
   127   64   65 am   BACKBONE|DICT|INTERRES
   128   64  127 1    
   129   65   66 2    
@<TRIPOS>SUBSTRUCTURE
     1 UNK         1 GROUP             0       ****    0 ROOT    
