@<TRIPOS>MOLECULE
3R135
127   129    1
SMALL
USER_CHARGES


@<TRIPOS>ATOM
      1 CA        -77.3555   31.1962  -75.6524 C.3       0 UNK        -0.1998 
      2 C         -78.3780   30.0741  -75.5539 C.2       0 UNK         0.4909 
      3 O         -79.3009   30.0173  -76.3666 O.2       0 UNK        -0.5240 
      4 N         -78.2093   29.1853  -74.5664 N.am      1 UNK        -0.4739 
      5 CA        -79.0158   27.9895  -74.2938 C.3       1 UNK         0.0864 
      6 C6        -80.5005   28.2629  -73.9050 C.3       11 UNK        -0.0881 
      7 S7        -80.7255   29.4430  -72.5317 S.3       11 UNK        -0.2682 
      8 C8        -80.4944   28.3869  -71.0618 C.3       11 UNK         0.0289 
      9 C9        -79.0271   28.0453  -70.8464 C.ar      11 UNK        -0.0687 
     10 C10       -78.5920   26.7165  -70.8462 C.ar      11 UNK        -0.0823 
     11 C11       -77.2330   26.4114  -70.7083 C.ar      11 UNK        -0.0830 
     12 C12       -76.3104   27.4568  -70.5600 C.ar      11 UNK        -0.1021 
     13 C13       -76.7331   28.7896  -70.5651 C.ar      11 UNK        -0.0753 
     14 C14       -78.0954   29.0720  -70.6806 C.ar      11 UNK        -0.0933 
     15 C15       -75.7265   29.9279  -70.4574 C.3       11 UNK         0.0166 
     16 S16       -75.8762   31.0827  -71.8601 S.3       11 UNK        -0.2615 
     17 C17       -74.4768   32.2163  -71.5617 C.3       11 UNK        -0.0865 
     18 CA        -73.4046   32.1567  -72.6865 C.3       10 UNK         0.0862 
     19 C         -72.3486   33.2926  -72.5534 C.2       10 UNK         0.5551 
     20 N         -71.0629   33.0326  -72.7616 N.am      10 UNK        -0.7319 
     21 O         -72.6987   34.4364  -72.2723 O.2       10 UNK        -0.5018 
     22 N         -72.7963   30.8186  -72.7924 N.am      10 UNK        -0.4509 
     23 C         -73.0720   29.9160  -73.7389 C.2       10 UNK         0.4899 
     24 O         -73.8714   30.0956  -74.6611 O.2       10 UNK        -0.4839 
     25 CA        -72.3626   28.5608  -73.5864 C.3       9 UNK         0.0222 
     26 CB        -72.9997   27.7560  -72.4415 C.3       9 UNK        -0.1966 
     27 N         -72.4554   27.7852  -74.8226 N.am      9 UNK        -0.4218 
     28 C         -71.6441   27.9243  -75.8797 C.2       9 UNK         0.5020 
     29 O         -70.6357   28.6323  -75.8864 O.2       9 UNK        -0.5274 
     30 CA        -72.0283   27.1456  -77.1489 C.3       8 UNK         0.0270 
     31 CB        -71.3611   25.7606  -77.1596 C.3       8 UNK        -0.1976 
     32 N         -73.4805   26.9920  -77.2730 N.am      8 UNK        -0.4313 
     33 C         -74.3017   27.9418  -77.7481 C.2       8 UNK         0.5041 
     34 O         -73.8983   29.0140  -78.2024 O.2       8 UNK        -0.5577 
     35 CA        -75.8221   27.6713  -77.6935 C.3       7 UNK         0.0284 
     36 CB        -76.5912   28.3259  -78.8604 C.3       7 UNK        -0.1958 
     37 N         -76.1780   26.2542  -77.5548 N.am      7 UNK        -0.4454 
     38 C         -75.8965   25.2428  -78.3897 C.2       7 UNK         0.5089 
     39 O         -75.3700   25.3934  -79.4928 O.2       7 UNK        -0.5125 
     40 CA        -76.2266   23.8185  -77.8860 C.3       6 UNK         0.0408 
     41 CB        -75.2819   22.7601  -78.4911 C.3       6 UNK        -0.1791 
     42 N         -76.2623   23.6702  -76.4211 N.am      6 UNK        -0.4762 
     43 C         -75.2988   24.0025  -75.5430 C.2       6 UNK         0.5007 
     44 O         -74.2467   24.5507  -75.8764 O.2       6 UNK        -0.5032 
     45 CA        -75.5315   23.7099  -74.0456 C.3       5 UNK         0.0783 
     46 C46       -75.4411   25.0016  -73.1974 C.3       11 UNK        -0.0857 
     47 S47       -75.1608   24.6257  -71.4353 S.3       11 UNK        -0.2512 
     48 C48       -76.7989   24.9455  -70.6958 C.3       11 UNK         0.0225 
     49 N         -76.7919   23.0009  -73.8053 N.am      5 UNK        -0.4615 
     50 C         -76.9067   21.6705  -73.7208 C.2       4 UNK         0.5053 
     51 O         -75.9575   20.8928  -73.8213 O.2       4 UNK        -0.5105 
     52 CA        -78.3185   21.1006  -73.4869 C.3       4 UNK         0.0263 
     53 CB        -78.5455   20.8516  -71.9866 C.3       4 UNK        -0.1981 
     54 N         -79.4213   21.9193  -74.0084 N.am      4 UNK        -0.4224 
     55 C         -79.5920   22.2768  -75.2899 C.2       3 UNK         0.4895 
     56 O         -78.7686   22.0298  -76.1710 O.2       3 UNK        -0.5091 
     57 CA        -80.8904   23.0278  -75.6528 C.3       3 UNK         0.0250 
     58 CB        -81.9070   23.1287  -74.4956 C.3       3 UNK        -0.1996 
     59 N         -80.5926   24.3761  -76.1326 N.am      3 UNK        -0.4254 
     60 C         -80.1694   24.6988  -77.3621 C.2       2 UNK         0.5004 
     61 O         -80.0686   23.8933  -78.2879 O.2       2 UNK        -0.5226 
     62 CA        -79.8153   26.1758  -77.6243 C.3       2 UNK         0.0269 
     63 CB        -80.7970   26.7984  -78.6311 C.3       2 UNK        -0.1926 
     64 N         -79.7675   27.0316  -76.4321 N.am      2 UNK        -0.4687 
     65 C         -78.8816   26.9560  -75.4291 C.2       1 UNK         0.5165 
     66 O         -77.9878   26.1109  -75.3739 O.2       1 UNK        -0.5079 
     67 H67       -77.8381   32.1596  -75.4912 H         1 UNK         0.0900 
     68 H68       -76.5581   31.0878  -74.9169 H         1 UNK         0.0900 
     69 H69       -76.8996   31.2019  -76.6421 H         1 UNK         0.0900 
     70 H70       -77.4322   29.3163  -73.9328 H         1 UNK         0.2959 
     71 H71       -78.5350   27.5198  -73.4383 H         1 UNK         0.1079 
     72 H72       -81.0037   27.3304  -73.6426 H         1 UNK         0.0837 
     73 H73       -81.0533   28.6732  -74.7513 H         1 UNK         0.0837 
     74 H74       -81.1043   27.4872  -71.1563 H         1 UNK         0.0685 
     75 H75       -80.8630   28.9199  -70.1843 H         1 UNK         0.0685 
     76 H76       -79.3125   25.9186  -70.9646 H         1 UNK         0.1434 
     77 H77       -75.2590   27.2349  -70.4442 H         1 UNK         0.1329 
     78 H78       -78.4290   30.1009  -70.6862 H         1 UNK         0.1335 
     79 H79       -74.7076   29.5400  -70.4237 H         1 UNK         0.0680 
     80 H80       -75.8917   30.4672  -69.5237 H         1 UNK         0.0680 
     81 H81       -74.0235   32.0070  -70.5914 H         1 UNK         0.1032 
     82 H82       -74.8954   33.2215  -71.4849 H         1 UNK         0.1032 
     83 H83       -73.9119   32.3873  -73.6251 H         1 UNK         0.0461 
     84 H84       -70.3906   33.7792  -72.6775 H         1 UNK         0.3453 
     85 H85       -70.7610   32.1135  -73.0419 H         1 UNK         0.3453 
     86 H86       -72.1311   30.5858  -72.0689 H         1 UNK         0.2984 
     87 H87       -71.3105   28.7347  -73.3509 H         1 UNK         0.0554 
     88 H88       -72.5923   26.7464  -72.3822 H         1 UNK         0.0847 
     89 H89       -74.0811   27.6808  -72.5598 H         1 UNK         0.0847 
     90 H90       -72.8148   28.2312  -71.4778 H         1 UNK         0.0847 
     91 H91       -73.2791   27.2150  -74.9372 H         1 UNK         0.3141 
     92 H92       -71.6571   27.7047  -78.0107 H         1 UNK         0.0743 
     93 H93       -70.2745   25.8530  -77.1352 H         1 UNK         0.0784 
     94 H94       -71.6197   25.2026  -78.0598 H         1 UNK         0.0784 
     95 H95       -71.6553   25.1607  -76.2976 H         1 UNK         0.0784 
     96 H96       -73.8767   26.1229  -76.9216 H         1 UNK         0.3213 
     97 H97       -76.1622   28.1505  -76.7744 H         1 UNK         0.0855 
     98 H98       -76.2942   27.9130  -79.8246 H         1 UNK         0.0814 
     99 H99       -76.4083   29.4004  -78.8974 H         1 UNK         0.0814 
    100 H100      -77.6672   28.1936  -78.7515 H         1 UNK         0.0814 
    101 H101      -76.6484   26.0132  -76.6841 H         1 UNK         0.3105 
    102 H102      -77.2363   23.6006  -78.2359 H         1 UNK         0.0547 
    103 H103      -75.5414   21.7576  -78.1511 H         1 UNK         0.0837 
    104 H104      -74.2420   22.9481  -78.2213 H         1 UNK         0.0837 
    105 H105      -75.3407   22.7544  -79.5801 H         1 UNK         0.0837 
    106 H106      -77.0980   23.2174  -76.0642 H         1 UNK         0.3020 
    107 H107      -74.6957   23.0688  -73.7547 H         1 UNK         0.1245 
    108 H108      -76.3292   25.6232  -73.3201 H         1 UNK         0.0781 
    109 H109      -74.5984   25.6133  -73.5189 H         1 UNK         0.0781 
    110 H110      -77.5341   24.3242  -71.2090 H         1 UNK         0.0836 
    111 H111      -76.7800   24.6048  -69.6600 H         1 UNK         0.0836 
    112 H112      -77.6221   23.5695  -73.7305 H         1 UNK         0.3022 
    113 H113      -78.3618   20.1386  -74.0018 H         1 UNK         0.0747 
    114 H114      -79.4917   20.3410  -71.8060 H         1 UNK         0.0793 
    115 H115      -77.7573   20.2219  -71.5711 H         1 UNK         0.0793 
    116 H116      -78.5506   21.7828  -71.4186 H         1 UNK         0.0793 
    117 H117      -80.1460   22.1642  -73.3493 H         1 UNK         0.3047 
    118 H118      -81.3621   22.4643  -76.4609 H         1 UNK         0.0822 
    119 H119      -82.8278   23.6074  -74.8303 H         1 UNK         0.0807 
    120 H120      -81.5247   23.7106  -73.6558 H         1 UNK         0.0807 
    121 H121      -82.1866   22.1415  -74.1246 H         1 UNK         0.0807 
    122 H122      -80.6384   25.1180  -75.4516 H         1 UNK         0.2946 
    123 H123      -78.8253   26.1770  -78.0794 H         1 UNK         0.1144 
    124 H124      -80.5025   27.8145  -78.8953 H         1 UNK         0.0793 
    125 H125      -81.8122   26.8341  -78.2342 H         1 UNK         0.0793 
    126 H126      -80.8287   26.2230  -79.5575 H         1 UNK         0.0793 
    127 H127      -80.4120   27.8106  -76.4215 H         1 UNK         0.2896 
@<TRIPOS>BOND
     1    1    2 1    
     2    1   67 1    
     3    1   68 1    
     4    1   69 1    
     5    2    3 2    
     6    2    4 am   BACKBONE|DICT|INTERRES
     7    4    5 1    
     8    4   70 1    
     9    5    6 1    
    10    5   65 1    
    11    5   71 1    
    12    6    7 1    
    13    6   72 1    
    14    6   73 1    
    15    7    8 1    
    16    8    9 1    
    17    8   74 1    
    18    8   75 1    
    19    9   10 ar   
    20    9   14 ar   
    21   10   11 ar   
    22   10   76 1    
    23   11   12 ar   
    24   11   48 1    
    25   12   13 ar   
    26   12   77 1    
    27   13   14 ar   
    28   13   15 1    
    29   14   78 1    
    30   15   16 1    
    31   15   79 1    
    32   15   80 1    
    33   16   17 1    
    34   17   18 1    
    35   17   81 1    
    36   17   82 1    
    37   18   19 1    
    38   18   22 1    
    39   18   83 1    
    40   19   20 am   BACKBONE|DICT|INTERRES
    41   19   21 2    
    42   20   84 1    
    43   20   85 1    
    44   22   23 am   BACKBONE|DICT|INTERRES
    45   22   86 1    
    46   23   24 2    
    47   23   25 1    
    48   25   26 1    
    49   25   27 1    
    50   25   87 1    
    51   26   88 1    
    52   26   89 1    
    53   26   90 1    
    54   27   28 am   BACKBONE|DICT|INTERRES
    55   27   91 1    
    56   28   29 2    
    57   28   30 1    
    58   30   31 1    
    59   30   32 1    
    60   30   92 1    
    61   31   93 1    
    62   31   94 1    
    63   31   95 1    
    64   32   33 am   BACKBONE|DICT|INTERRES
    65   32   96 1    
    66   33   34 2    
    67   33   35 1    
    68   35   36 1    
    69   35   37 1    
    70   35   97 1    
    71   36   98 1    
    72   36   99 1    
    73   36  100 1    
    74   37   38 am   BACKBONE|DICT|INTERRES
    75   37  101 1    
    76   38   39 2    
    77   38   40 1    
    78   40   41 1    
    79   40   42 1    
    80   40  102 1    
    81   41  103 1    
    82   41  104 1    
    83   41  105 1    
    84   42   43 am   BACKBONE|DICT|INTERRES
    85   42  106 1    
    86   43   44 2    
    87   43   45 1    
    88   45   46 1    
    89   45   49 1    
    90   45  107 1    
    91   46   47 1    
    92   46  108 1    
    93   46  109 1    
    94   47   48 1    
    95   48  110 1    
    96   48  111 1    
    97   49   50 am   BACKBONE|DICT|INTERRES
    98   49  112 1    
    99   50   51 2    
   100   50   52 1    
   101   52   53 1    
   102   52   54 1    
   103   52  113 1    
   104   53  114 1    
   105   53  115 1    
   106   53  116 1    
   107   54   55 am   BACKBONE|DICT|INTERRES
   108   54  117 1    
   109   55   56 2    
   110   55   57 1    
   111   57   58 1    
   112   57   59 1    
   113   57  118 1    
   114   58  119 1    
   115   58  120 1    
   116   58  121 1    
   117   59   60 am   BACKBONE|DICT|INTERRES
   118   59  122 1    
   119   60   61 2    
   120   60   62 1    
   121   62   63 1    
   122   62   64 1    
   123   62  123 1    
   124   63  124 1    
   125   63  125 1    
   126   63  126 1    
   127   64   65 am   BACKBONE|DICT|INTERRES
   128   64  127 1    
   129   65   66 2    
@<TRIPOS>SUBSTRUCTURE
     1 UNK         1 GROUP             0       ****    0 ROOT    
