@<TRIPOS>MOLECULE
3R135
127   129    1
SMALL
USER_CHARGES


@<TRIPOS>ATOM
      1 CA        -82.7402   25.2454  -71.9104 C.3       0 UNK        -0.1998 
      2 C         -82.4215   25.7849  -73.2959 C.2       0 UNK         0.4909 
      3 O         -83.0836   25.4074  -74.2632 O.2       0 UNK        -0.5240 
      4 N         -81.4077   26.6566  -73.3980 N.am      1 UNK        -0.4739 
      5 CA        -80.9336   27.2954  -74.6327 C.3       1 UNK         0.0864 
      6 C6        -79.7646   28.2787  -74.3730 C.3       11 UNK        -0.0881 
      7 S7        -80.1596   29.6011  -73.1704 S.3       11 UNK        -0.2682 
      8 C8        -79.3532   29.0467  -71.6263 C.3       11 UNK         0.0289 
      9 C9        -77.8433   28.9131  -71.7700 C.ar      11 UNK        -0.0687 
     10 C10       -77.2783   27.6583  -72.0110 C.ar      11 UNK        -0.0823 
     11 C11       -75.9075   27.5231  -72.2303 C.ar      11 UNK        -0.0830 
     12 C12       -75.0871   28.6502  -72.1471 C.ar      11 UNK        -0.1021 
     13 C13       -75.6317   29.9090  -71.8735 C.ar      11 UNK        -0.0753 
     14 C14       -77.0130   30.0363  -71.6869 C.ar      11 UNK        -0.0933 
     15 C15       -74.7235   31.1283  -71.8301 C.3       11 UNK         0.0166 
     16 S16       -73.6717   31.1131  -70.3467 S.3       11 UNK        -0.2615 
     17 C17       -72.5649   32.5344  -70.6629 C.3       11 UNK        -0.0865 
     18 CA        -71.5742   32.3485  -71.8490 C.3       10 UNK         0.0862 
     19 C         -70.5679   33.5348  -71.9159 C.2       10 UNK         0.5551 
     20 N         -69.2684   33.3155  -71.7578 N.am      10 UNK        -0.7319 
     21 O         -70.9783   34.6755  -72.1152 O.2       10 UNK        -0.5018 
     22 N         -70.9744   31.0035  -71.8636 N.am      10 UNK        -0.4509 
     23 C         -70.3867   30.4252  -72.9186 C.2       10 UNK         0.4899 
     24 O         -70.1634   31.0069  -73.9824 O.2       10 UNK        -0.4839 
     25 CA        -69.9700   28.9446  -72.7653 C.3       9 UNK         0.0222 
     26 CB        -70.5964   28.2399  -71.5382 C.3       9 UNK        -0.1966 
     27 N         -70.2220   28.1522  -73.9779 N.am      9 UNK        -0.4218 
     28 C         -71.3921   28.0091  -74.6184 C.2       9 UNK         0.5020 
     29 O         -72.4422   28.5674  -74.2907 O.2       9 UNK        -0.5274 
     30 CA        -71.3988   27.0534  -75.8172 C.3       8 UNK         0.0270 
     31 CB        -71.4205   25.5863  -75.3481 C.3       8 UNK        -0.1976 
     32 N         -72.5802   27.3552  -76.6216 N.am      8 UNK        -0.4313 
     33 C         -72.7365   27.0775  -77.9183 C.2       8 UNK         0.5041 
     34 O         -71.9508   26.3882  -78.5722 O.2       8 UNK        -0.5577 
     35 CA        -73.9750   27.6725  -78.5990 C.3       7 UNK         0.0284 
     36 CB        -73.7300   27.9811  -80.0910 C.3       7 UNK        -0.1958 
     37 N         -75.0998   26.7537  -78.4533 N.am      7 UNK        -0.4454 
     38 C         -76.3886   27.1022  -78.5279 C.2       7 UNK         0.5089 
     39 O         -76.7700   28.2584  -78.7142 O.2       7 UNK        -0.5125 
     40 CA        -77.4442   25.9924  -78.3663 C.3       6 UNK         0.0408 
     41 CB        -77.6064   25.1749  -79.6636 C.3       6 UNK        -0.1791 
     42 N         -77.2466   25.1342  -77.1897 N.am      6 UNK        -0.4762 
     43 C         -76.2614   24.2518  -76.9597 C.2       6 UNK         0.5007 
     44 O         -75.3974   23.9689  -77.7913 O.2       6 UNK        -0.5032 
     45 CA        -76.1673   23.6213  -75.5567 C.3       5 UNK         0.0783 
     46 C46       -75.0233   24.2707  -74.7270 C.3       11 UNK        -0.0857 
     47 S47       -75.2505   26.0621  -74.4380 S.3       11 UNK        -0.2512 
     48 C48       -75.3328   26.1732  -72.6265 C.3       11 UNK         0.0225 
     49 N         -77.4483   23.5932  -74.8393 N.am      5 UNK        -0.4615 
     50 C         -77.7108   22.7371  -73.8440 C.2       4 UNK         0.5053 
     51 O         -76.9300   21.8610  -73.4707 O.2       4 UNK        -0.5105 
     52 CA        -79.0630   22.8793  -73.1352 C.3       4 UNK         0.0263 
     53 CB        -79.0887   24.1403  -72.2584 C.3       4 UNK        -0.1981 
     54 N         -80.1718   22.9187  -74.0873 N.am      4 UNK        -0.4224 
     55 C         -80.8596   21.8427  -74.4957 C.2       3 UNK         0.4895 
     56 O         -80.6183   20.6948  -74.1201 O.2       3 UNK        -0.5091 
     57 CA        -82.0330   22.0717  -75.4658 C.3       3 UNK         0.0250 
     58 CB        -83.3740   21.9623  -74.7210 C.3       3 UNK        -0.1996 
     59 N         -81.9660   23.3671  -76.1457 N.am      3 UNK        -0.4254 
     60 C         -81.2249   23.6005  -77.2381 C.2       2 UNK         0.5004 
     61 O         -80.5705   22.7347  -77.8189 O.2       2 UNK        -0.5226 
     62 CA        -81.1823   25.0463  -77.7638 C.3       2 UNK         0.0269 
     63 CB        -82.2530   25.2576  -78.8456 C.3       2 UNK        -0.1926 
     64 N         -81.3346   26.0704  -76.7242 N.am      2 UNK        -0.4687 
     65 C         -80.5193   26.2347  -75.6734 C.2       1 UNK         0.5165 
     66 O         -79.5091   25.5512  -75.4764 O.2       1 UNK        -0.5079 
     67 H67       -82.5897   24.1664  -71.8853 H         1 UNK         0.0900 
     68 H68       -82.1122   25.6953  -71.1419 H         1 UNK         0.0900 
     69 H69       -83.7807   25.4499  -71.6600 H         1 UNK         0.0900 
     70 H70       -80.9171   26.9346  -72.5623 H         1 UNK         0.2959 
     71 H71       -81.7695   27.8698  -75.0377 H         1 UNK         0.1079 
     72 H72       -79.4887   28.7740  -75.3060 H         1 UNK         0.0837 
     73 H73       -78.8710   27.7398  -74.0652 H         1 UNK         0.0837 
     74 H74       -79.7925   28.1017  -71.3048 H         1 UNK         0.0685 
     75 H75       -79.5785   29.7660  -70.8375 H         1 UNK         0.0685 
     76 H76       -77.9150   26.7903  -72.0791 H         1 UNK         0.1434 
     77 H77       -74.0250   28.5542  -72.3210 H         1 UNK         0.1329 
     78 H78       -77.4462   31.0094  -71.4999 H         1 UNK         0.1335 
     79 H79       -74.0993   31.1281  -72.7245 H         1 UNK         0.0680 
     80 H80       -75.3052   32.0511  -71.8526 H         1 UNK         0.0680 
     81 H81       -73.1788   33.4237  -70.8194 H         1 UNK         0.1032 
     82 H82       -72.0108   32.7164  -69.7399 H         1 UNK         0.1032 
     83 H83       -72.1590   32.4266  -72.7670 H         1 UNK         0.0461 
     84 H84       -68.6248   34.0896  -71.8050 H         1 UNK         0.3453 
     85 H85       -68.9269   32.3808  -71.6015 H         1 UNK         0.3453 
     86 H86       -71.1232   30.4532  -71.0310 H         1 UNK         0.2984 
     87 H87       -68.8881   28.9496  -72.6260 H         1 UNK         0.0554 
     88 H88       -70.2747   28.6995  -70.6030 H         1 UNK         0.0847 
     89 H89       -70.2948   27.1934  -71.4911 H         1 UNK         0.0847 
     90 H90       -71.6866   28.2651  -71.5666 H         1 UNK         0.0847 
     91 H91       -69.4153   27.6760  -74.3573 H         1 UNK         0.3141 
     92 H92       -70.5056   27.2376  -76.4182 H         1 UNK         0.0743 
     93 H93       -72.2226   25.4099  -74.6317 H         1 UNK         0.0784 
     94 H94       -70.4850   25.3211  -74.8545 H         1 UNK         0.0784 
     95 H95       -71.5529   24.8961  -76.1813 H         1 UNK         0.0784 
     96 H96       -73.2617   27.9221  -76.1274 H         1 UNK         0.3213 
     97 H97       -74.2123   28.6114  -78.0930 H         1 UNK         0.0855 
     98 H98       -73.5604   27.0714  -80.6683 H         1 UNK         0.0814 
     99 H99       -72.8539   28.6181  -80.2186 H         1 UNK         0.0814 
    100 H100      -74.5765   28.5051  -80.5350 H         1 UNK         0.0814 
    101 H101      -74.8771   25.7770  -78.2747 H         1 UNK         0.3105 
    102 H102      -78.3877   26.5077  -78.1854 H         1 UNK         0.0547 
    103 H103      -78.3573   24.3927  -79.5547 H         1 UNK         0.0837 
    104 H104      -76.6742   24.6991  -79.9688 H         1 UNK         0.0837 
    105 H105      -77.9215   25.8171  -80.4868 H         1 UNK         0.0837 
    106 H106      -77.8967   25.3305  -76.4354 H         1 UNK         0.3020 
    107 H107      -75.8842   22.5822  -75.7421 H         1 UNK         0.1245 
    108 H108      -74.0737   24.1307  -75.2451 H         1 UNK         0.0781 
    109 H109      -74.9073   23.7559  -73.7726 H         1 UNK         0.0781 
    110 H110      -74.3349   26.0425  -72.2052 H         1 UNK         0.0836 
    111 H111      -75.9525   25.3660  -72.2330 H         1 UNK         0.0836 
    112 H112      -78.1460   24.2856  -75.0905 H         1 UNK         0.3022 
    113 H113      -79.1803   22.0189  -72.4724 H         1 UNK         0.0747 
    114 H114      -79.9832   24.1694  -71.6374 H         1 UNK         0.0793 
    115 H115      -78.2300   24.1693  -71.5862 H         1 UNK         0.0793 
    116 H116      -79.0674   25.0459  -72.8622 H         1 UNK         0.0793 
    117 H117      -80.3837   23.8158  -74.5030 H         1 UNK         0.3047 
    118 H118      -81.9987   21.2757  -76.2131 H         1 UNK         0.0822 
    119 H119      -84.2168   22.0818  -75.4019 H         1 UNK         0.0807 
    120 H120      -83.4664   22.7155  -73.9381 H         1 UNK         0.0807 
    121 H121      -83.4782   20.9857  -74.2461 H         1 UNK         0.0807 
    122 H122      -82.4639   24.1390  -75.7101 H         1 UNK         0.2946 
    123 H123      -80.2064   25.1810  -78.2264 H         1 UNK         0.1144 
    124 H124      -82.1667   26.2435  -79.3029 H         1 UNK         0.0793 
    125 H125      -83.2611   25.1606  -78.4405 H         1 UNK         0.0793 
    126 H126      -82.1507   24.5224  -79.6453 H         1 UNK         0.0793 
    127 H127      -82.1657   26.6421  -76.7821 H         1 UNK         0.2896 
@<TRIPOS>BOND
     1    1    2 1    
     2    1   67 1    
     3    1   68 1    
     4    1   69 1    
     5    2    3 2    
     6    2    4 am   BACKBONE|DICT|INTERRES
     7    4    5 1    
     8    4   70 1    
     9    5    6 1    
    10    5   65 1    
    11    5   71 1    
    12    6    7 1    
    13    6   72 1    
    14    6   73 1    
    15    7    8 1    
    16    8    9 1    
    17    8   74 1    
    18    8   75 1    
    19    9   10 ar   
    20    9   14 ar   
    21   10   11 ar   
    22   10   76 1    
    23   11   12 ar   
    24   11   48 1    
    25   12   13 ar   
    26   12   77 1    
    27   13   14 ar   
    28   13   15 1    
    29   14   78 1    
    30   15   16 1    
    31   15   79 1    
    32   15   80 1    
    33   16   17 1    
    34   17   18 1    
    35   17   81 1    
    36   17   82 1    
    37   18   19 1    
    38   18   22 1    
    39   18   83 1    
    40   19   20 am   BACKBONE|DICT|INTERRES
    41   19   21 2    
    42   20   84 1    
    43   20   85 1    
    44   22   23 am   BACKBONE|DICT|INTERRES
    45   22   86 1    
    46   23   24 2    
    47   23   25 1    
    48   25   26 1    
    49   25   27 1    
    50   25   87 1    
    51   26   88 1    
    52   26   89 1    
    53   26   90 1    
    54   27   28 am   BACKBONE|DICT|INTERRES
    55   27   91 1    
    56   28   29 2    
    57   28   30 1    
    58   30   31 1    
    59   30   32 1    
    60   30   92 1    
    61   31   93 1    
    62   31   94 1    
    63   31   95 1    
    64   32   33 am   BACKBONE|DICT|INTERRES
    65   32   96 1    
    66   33   34 2    
    67   33   35 1    
    68   35   36 1    
    69   35   37 1    
    70   35   97 1    
    71   36   98 1    
    72   36   99 1    
    73   36  100 1    
    74   37   38 am   BACKBONE|DICT|INTERRES
    75   37  101 1    
    76   38   39 2    
    77   38   40 1    
    78   40   41 1    
    79   40   42 1    
    80   40  102 1    
    81   41  103 1    
    82   41  104 1    
    83   41  105 1    
    84   42   43 am   BACKBONE|DICT|INTERRES
    85   42  106 1    
    86   43   44 2    
    87   43   45 1    
    88   45   46 1    
    89   45   49 1    
    90   45  107 1    
    91   46   47 1    
    92   46  108 1    
    93   46  109 1    
    94   47   48 1    
    95   48  110 1    
    96   48  111 1    
    97   49   50 am   BACKBONE|DICT|INTERRES
    98   49  112 1    
    99   50   51 2    
   100   50   52 1    
   101   52   53 1    
   102   52   54 1    
   103   52  113 1    
   104   53  114 1    
   105   53  115 1    
   106   53  116 1    
   107   54   55 am   BACKBONE|DICT|INTERRES
   108   54  117 1    
   109   55   56 2    
   110   55   57 1    
   111   57   58 1    
   112   57   59 1    
   113   57  118 1    
   114   58  119 1    
   115   58  120 1    
   116   58  121 1    
   117   59   60 am   BACKBONE|DICT|INTERRES
   118   59  122 1    
   119   60   61 2    
   120   60   62 1    
   121   62   63 1    
   122   62   64 1    
   123   62  123 1    
   124   63  124 1    
   125   63  125 1    
   126   63  126 1    
   127   64   65 am   BACKBONE|DICT|INTERRES
   128   64  127 1    
   129   65   66 2    
@<TRIPOS>SUBSTRUCTURE
     1 UNK         1 GROUP             0       ****    0 ROOT    
