@<TRIPOS>MOLECULE
3R135
127   129    1
SMALL
USER_CHARGES


@<TRIPOS>ATOM
      1 CA        -83.7752   29.8677  -77.2489 C.3       0 UNK        -0.1998 
      2 C         -82.6571   28.9494  -76.7781 C.2       0 UNK         0.4909 
      3 O         -82.0861   28.2165  -77.5865 O.2       0 UNK        -0.5240 
      4 N         -82.3358   28.9912  -75.4793 N.am      1 UNK        -0.4739 
      5 CA        -81.3181   28.1508  -74.8367 C.3       1 UNK         0.0864 
      6 C6        -80.9382   28.6834  -73.4321 C.3       11 UNK        -0.0881 
      7 S7        -80.3165   30.4010  -73.4849 S.3       11 UNK        -0.2682 
      8 C8        -80.0131   30.7489  -71.7223 C.3       11 UNK         0.0289 
      9 C9        -78.8130   29.9748  -71.1989 C.ar      11 UNK        -0.0687 
     10 C10       -78.9985   28.7913  -70.4803 C.ar      11 UNK        -0.0823 
     11 C11       -77.8986   28.0352  -70.0627 C.ar      11 UNK        -0.0830 
     12 C12       -76.6050   28.4938  -70.3288 C.ar      11 UNK        -0.1021 
     13 C13       -76.4093   29.6813  -71.0402 C.ar      11 UNK        -0.0753 
     14 C14       -77.5158   30.4216  -71.4665 C.ar      11 UNK        -0.0933 
     15 C15       -75.0040   30.1400  -71.3885 C.3       11 UNK         0.0166 
     16 S16       -74.5231   29.5363  -73.0360 S.3       11 UNK        -0.2615 
     17 C17       -72.7799   30.0779  -73.1093 C.3       11 UNK        -0.0865 
     18 CA        -71.7491   28.9257  -72.9748 C.3       10 UNK         0.0862 
     19 C         -71.8011   28.2394  -71.5764 C.2       10 UNK         0.5551 
     20 N         -72.1182   26.9540  -71.4768 N.am      10 UNK        -0.7319 
     21 O         -71.5367   28.8873  -70.5666 O.2       10 UNK        -0.5018 
     22 N         -71.7873   28.0166  -74.1335 N.am      10 UNK        -0.4509 
     23 C         -70.7859   27.1948  -74.4815 C.2       10 UNK         0.4899 
     24 O         -69.7210   27.1101  -73.8693 O.2       10 UNK        -0.4839 
     25 CA        -70.9909   26.3403  -75.7394 C.3       9 UNK         0.0222 
     26 CB        -71.9060   25.1381  -75.4470 C.3       9 UNK        -0.1966 
     27 N         -71.5467   27.1428  -76.8295 N.am      9 UNK        -0.4218 
     28 C         -70.8129   27.8354  -77.7138 C.2       9 UNK         0.5020 
     29 O         -69.5811   27.8246  -77.7352 O.2       9 UNK        -0.5274 
     30 CA        -71.5613   28.6714  -78.7707 C.3       8 UNK         0.0270 
     31 CB        -71.6321   27.9080  -80.1038 C.3       8 UNK        -0.1976 
     32 N         -72.9162   29.0475  -78.3643 N.am      8 UNK        -0.4313 
     33 C         -73.2093   29.9858  -77.4537 C.2       8 UNK         0.5041 
     34 O         -72.3683   30.7087  -76.9188 O.2       8 UNK        -0.5577 
     35 CA        -74.6906   30.1205  -77.0502 C.3       7 UNK         0.0284 
     36 CB        -75.3734   31.2259  -77.8716 C.3       7 UNK        -0.1958 
     37 N         -75.4677   28.8770  -77.1639 N.am      7 UNK        -0.4454 
     38 C         -75.1876   27.7426  -76.5093 C.2       7 UNK         0.5089 
     39 O         -74.1922   27.5932  -75.7970 O.2       7 UNK        -0.5125 
     40 CA        -76.1273   26.5535  -76.7373 C.3       6 UNK         0.0408 
     41 CB        -75.5436   25.6034  -77.7945 C.3       6 UNK        -0.1791 
     42 N         -76.2729   25.8274  -75.4811 N.am      6 UNK        -0.4762 
     43 C         -77.2003   26.0855  -74.5539 C.2       6 UNK         0.5007 
     44 O         -78.1444   26.8578  -74.7330 O.2       6 UNK        -0.5032 
     45 CA        -77.0499   25.3307  -73.2157 C.3       5 UNK         0.0783 
     46 C46       -78.1026   25.7521  -72.1600 C.3       11 UNK        -0.0857 
     47 S47       -77.5687   25.2829  -70.4733 S.3       11 UNK        -0.2512 
     48 C48       -78.1185   26.6741  -69.4168 C.3       11 UNK         0.0225 
     49 N         -77.0765   23.8832  -73.4406 N.am      5 UNK        -0.4615 
     50 C         -76.0390   23.1323  -73.8285 C.2       4 UNK         0.5053 
     51 O         -74.9081   23.5768  -74.0251 O.2       4 UNK        -0.5105 
     52 CA        -76.3335   21.6447  -74.0736 C.3       4 UNK         0.0263 
     53 CB        -76.4303   20.8802  -72.7429 C.3       4 UNK        -0.1981 
     54 N         -77.5707   21.4666  -74.8394 N.am      4 UNK        -0.4224 
     55 C         -77.6622   21.6273  -76.1680 C.2       3 UNK         0.4895 
     56 O         -76.7002   21.8514  -76.9031 O.2       3 UNK        -0.5091 
     57 CA        -79.0737   21.5378  -76.7750 C.3       3 UNK         0.0250 
     58 CB        -79.5338   20.0744  -76.8845 C.3       3 UNK        -0.1996 
     59 N         -80.0641   22.3162  -76.0221 N.am      3 UNK        -0.4254 
     60 C         -80.0625   23.6547  -75.9420 C.2       2 UNK         0.5004 
     61 O         -79.2531   24.3683  -76.5373 O.2       2 UNK        -0.5226 
     62 CA        -81.1372   24.3012  -75.0532 C.3       2 UNK         0.0269 
     63 CB        -81.2143   23.6564  -73.6532 C.3       2 UNK        -0.1926 
     64 N         -80.8682   25.7366  -74.9403 N.am      2 UNK        -0.4687 
     65 C         -81.7950   26.6832  -74.7635 C.2       1 UNK         0.5165 
     66 O         -82.9843   26.4370  -74.5420 O.2       1 UNK        -0.5079 
     67 H67       -83.4057   30.5449  -78.0185 H         1 UNK         0.0900 
     68 H68       -84.5891   29.2804  -77.6731 H         1 UNK         0.0900 
     69 H69       -84.1794   30.4687  -76.4345 H         1 UNK         0.0900 
     70 H70       -82.8414   29.6078  -74.8598 H         1 UNK         0.2959 
     71 H71       -80.4235   28.1811  -75.4636 H         1 UNK         0.1079 
     72 H72       -81.7936   28.6381  -72.7552 H         1 UNK         0.0837 
     73 H73       -80.1615   28.0542  -72.9958 H         1 UNK         0.0837 
     74 H74       -80.9090   30.5183  -71.1436 H         1 UNK         0.0685 
     75 H75       -79.8368   31.8185  -71.5992 H         1 UNK         0.0685 
     76 H76       -80.0014   28.4319  -70.2941 H         1 UNK         0.1434 
     77 H77       -75.7527   27.8998  -70.0273 H         1 UNK         0.1329 
     78 H78       -77.3680   31.3280  -72.0378 H         1 UNK         0.1335 
     79 H79       -74.9485   31.2295  -71.3685 H         1 UNK         0.0680 
     80 H80       -74.2959   29.7774  -70.6419 H         1 UNK         0.0680 
     81 H81       -72.5975   30.8367  -72.3461 H         1 UNK         0.1032 
     82 H82       -72.6287   30.5891  -74.0614 H         1 UNK         0.1032 
     83 H83       -70.7683   29.4041  -73.0088 H         1 UNK         0.0461 
     84 H84       -72.3387   26.4223  -72.3027 H         1 UNK         0.3453 
     85 H85       -72.1418   26.5178  -70.5692 H         1 UNK         0.3453 
     86 H86       -72.6562   27.9945  -74.6604 H         1 UNK         0.2984 
     87 H87       -70.0187   25.9451  -76.0421 H         1 UNK         0.0554 
     88 H88       -71.4736   24.5008  -74.6747 H         1 UNK         0.0847 
     89 H89       -72.0447   24.5201  -76.3340 H         1 UNK         0.0847 
     90 H90       -72.8923   25.4420  -75.0959 H         1 UNK         0.0847 
     91 H91       -72.5519   27.2775  -76.8113 H         1 UNK         0.3141 
     92 H92       -70.9859   29.5857  -78.9319 H         1 UNK         0.0743 
     93 H93       -70.6338   27.6401  -80.4529 H         1 UNK         0.0784 
     94 H94       -72.2032   26.9833  -80.0113 H         1 UNK         0.0784 
     95 H95       -72.0937   28.5131  -80.8844 H         1 UNK         0.0784 
     96 H96       -73.6781   28.5207  -78.7655 H         1 UNK         0.3213 
     97 H97       -74.7082   30.4175  -75.9995 H         1 UNK         0.0855 
     98 H98       -75.4200   30.9728  -78.9315 H         1 UNK         0.0814 
     99 H99       -74.8294   32.1678  -77.7853 H         1 UNK         0.0814 
    100 H100      -76.3899   31.4099  -77.5231 H         1 UNK         0.0814 
    101 H101      -76.2966   28.9120  -77.7404 H         1 UNK         0.3105 
    102 H102      -77.1006   26.9099  -77.0813 H         1 UNK         0.0547 
    103 H103      -76.1903   24.7376  -77.9424 H         1 UNK         0.0837 
    104 H104      -74.5563   25.2360  -77.5108 H         1 UNK         0.0837 
    105 H105      -75.4440   26.1020  -78.7592 H         1 UNK         0.0837 
    106 H106      -75.5278   25.1841  -75.2388 H         1 UNK         0.3020 
    107 H107      -76.0661   25.6129  -72.8314 H         1 UNK         0.1245 
    108 H108      -79.0787   25.3157  -72.3658 H         1 UNK         0.0781 
    109 H109      -78.2536   26.8267  -72.2123 H         1 UNK         0.0781 
    110 H110      -77.5818   26.6332  -68.4681 H         1 UNK         0.0836 
    111 H111      -79.1727   26.5292  -69.1753 H         1 UNK         0.0836 
    112 H112      -77.9698   23.4353  -73.3177 H         1 UNK         0.3022 
    113 H113      -75.5003   21.2267  -74.6433 H         1 UNK         0.0747 
    114 H114      -76.5776   19.8130  -72.9100 H         1 UNK         0.0793 
    115 H115      -75.5127   20.9921  -72.1635 H         1 UNK         0.0793 
    116 H116      -77.2523   21.2392  -72.1224 H         1 UNK         0.0793 
    117 H117      -78.4100   21.2559  -74.3202 H         1 UNK         0.3047 
    118 H118      -79.0221   21.9504  -77.7853 H         1 UNK         0.0822 
    119 H119      -80.4904   19.9979  -77.4018 H         1 UNK         0.0807 
    120 H120      -79.6431   19.6055  -75.9059 H         1 UNK         0.0807 
    121 H121      -78.8140   19.4817  -77.4509 H         1 UNK         0.0807 
    122 H122      -80.7739   21.7950  -75.5276 H         1 UNK         0.2946 
    123 H123      -82.0947   24.1651  -75.5618 H         1 UNK         0.1144 
    124 H124      -80.2335   23.5641  -73.1900 H         1 UNK         0.0793 
    125 H125      -81.6412   22.6545  -73.7054 H         1 UNK         0.0793 
    126 H126      -81.8496   24.2322  -72.9798 H         1 UNK         0.0793 
    127 H127      -79.9083   26.0101  -75.1431 H         1 UNK         0.2896 
@<TRIPOS>BOND
     1    1    2 1    
     2    1   67 1    
     3    1   68 1    
     4    1   69 1    
     5    2    3 2    
     6    2    4 am   BACKBONE|DICT|INTERRES
     7    4    5 1    
     8    4   70 1    
     9    5    6 1    
    10    5   65 1    
    11    5   71 1    
    12    6    7 1    
    13    6   72 1    
    14    6   73 1    
    15    7    8 1    
    16    8    9 1    
    17    8   74 1    
    18    8   75 1    
    19    9   10 ar   
    20    9   14 ar   
    21   10   11 ar   
    22   10   76 1    
    23   11   12 ar   
    24   11   48 1    
    25   12   13 ar   
    26   12   77 1    
    27   13   14 ar   
    28   13   15 1    
    29   14   78 1    
    30   15   16 1    
    31   15   79 1    
    32   15   80 1    
    33   16   17 1    
    34   17   18 1    
    35   17   81 1    
    36   17   82 1    
    37   18   19 1    
    38   18   22 1    
    39   18   83 1    
    40   19   20 am   BACKBONE|DICT|INTERRES
    41   19   21 2    
    42   20   84 1    
    43   20   85 1    
    44   22   23 am   BACKBONE|DICT|INTERRES
    45   22   86 1    
    46   23   24 2    
    47   23   25 1    
    48   25   26 1    
    49   25   27 1    
    50   25   87 1    
    51   26   88 1    
    52   26   89 1    
    53   26   90 1    
    54   27   28 am   BACKBONE|DICT|INTERRES
    55   27   91 1    
    56   28   29 2    
    57   28   30 1    
    58   30   31 1    
    59   30   32 1    
    60   30   92 1    
    61   31   93 1    
    62   31   94 1    
    63   31   95 1    
    64   32   33 am   BACKBONE|DICT|INTERRES
    65   32   96 1    
    66   33   34 2    
    67   33   35 1    
    68   35   36 1    
    69   35   37 1    
    70   35   97 1    
    71   36   98 1    
    72   36   99 1    
    73   36  100 1    
    74   37   38 am   BACKBONE|DICT|INTERRES
    75   37  101 1    
    76   38   39 2    
    77   38   40 1    
    78   40   41 1    
    79   40   42 1    
    80   40  102 1    
    81   41  103 1    
    82   41  104 1    
    83   41  105 1    
    84   42   43 am   BACKBONE|DICT|INTERRES
    85   42  106 1    
    86   43   44 2    
    87   43   45 1    
    88   45   46 1    
    89   45   49 1    
    90   45  107 1    
    91   46   47 1    
    92   46  108 1    
    93   46  109 1    
    94   47   48 1    
    95   48  110 1    
    96   48  111 1    
    97   49   50 am   BACKBONE|DICT|INTERRES
    98   49  112 1    
    99   50   51 2    
   100   50   52 1    
   101   52   53 1    
   102   52   54 1    
   103   52  113 1    
   104   53  114 1    
   105   53  115 1    
   106   53  116 1    
   107   54   55 am   BACKBONE|DICT|INTERRES
   108   54  117 1    
   109   55   56 2    
   110   55   57 1    
   111   57   58 1    
   112   57   59 1    
   113   57  118 1    
   114   58  119 1    
   115   58  120 1    
   116   58  121 1    
   117   59   60 am   BACKBONE|DICT|INTERRES
   118   59  122 1    
   119   60   61 2    
   120   60   62 1    
   121   62   63 1    
   122   62   64 1    
   123   62  123 1    
   124   63  124 1    
   125   63  125 1    
   126   63  126 1    
   127   64   65 am   BACKBONE|DICT|INTERRES
   128   64  127 1    
   129   65   66 2    
@<TRIPOS>SUBSTRUCTURE
     1 UNK         1 GROUP             0       ****    0 ROOT    
