@<TRIPOS>MOLECULE
3R135
127   129    1
SMALL
USER_CHARGES


@<TRIPOS>ATOM
      1 CA        -81.6391   25.8443  -70.5547 C.3       0 UNK        -0.1998 
      2 C         -82.0916   25.9258  -72.0048 C.2       0 UNK         0.4909 
      3 O         -82.5146   24.9182  -72.5723 O.2       0 UNK        -0.5240 
      4 N         -82.0110   27.1192  -72.6093 N.am      1 UNK        -0.4739 
      5 CA        -82.3089   27.3671  -74.0218 C.3       1 UNK         0.0864 
      6 C6        -82.3468   28.8870  -74.3525 C.3       11 UNK        -0.0881 
      7 S7        -80.7365   29.7598  -74.3893 S.3       11 UNK        -0.2682 
      8 C8        -80.5417   30.3564  -72.6815 C.3       11 UNK         0.0289 
      9 C9        -79.1761   29.9743  -72.1268 C.ar      11 UNK        -0.0687 
     10 C10       -78.9509   28.6769  -71.6614 C.ar      11 UNK        -0.0823 
     11 C11       -77.7112   28.3050  -71.1408 C.ar      11 UNK        -0.0830 
     12 C12       -76.6807   29.2459  -71.0859 C.ar      11 UNK        -0.1021 
     13 C13       -76.8865   30.5482  -71.5552 C.ar      11 UNK        -0.0753 
     14 C14       -78.1365   30.9084  -72.0719 C.ar      11 UNK        -0.0933 
     15 C15       -75.7600   31.5695  -71.4868 C.3       11 UNK         0.0166 
     16 S16       -75.0295   31.9258  -73.1178 S.3       11 UNK        -0.2615 
     17 C17       -74.4136   30.2956  -73.6645 C.3       11 UNK        -0.0865 
     18 CA        -72.8993   30.0684  -73.3820 C.3       10 UNK         0.0862 
     19 C         -72.6513   29.1454  -72.1501 C.2       10 UNK         0.5551 
     20 N         -71.9619   28.0171  -72.2796 N.am      10 UNK        -0.7319 
     21 O         -73.0741   29.4676  -71.0439 O.2       10 UNK        -0.5018 
     22 N         -72.1956   29.6275  -74.5971 N.am      10 UNK        -0.4509 
     23 C         -70.9229   29.9265  -74.8844 C.2       10 UNK         0.4899 
     24 O         -70.2311   30.6765  -74.1929 O.2       10 UNK        -0.4839 
     25 CA        -70.3170   29.3053  -76.1615 C.3       9 UNK         0.0222 
     26 CB        -68.7788   29.2008  -76.0847 C.3       9 UNK        -0.1966 
     27 N         -70.8824   28.0103  -76.5632 N.am      9 UNK        -0.4218 
     28 C         -70.9554   26.8806  -75.8463 C.2       9 UNK         0.5020 
     29 O         -70.6684   26.8095  -74.6494 O.2       9 UNK        -0.5274 
     30 CA        -71.4117   25.6192  -76.6099 C.3       8 UNK         0.0270 
     31 CB        -71.4972   24.3754  -75.7060 C.3       8 UNK        -0.1976 
     32 N         -72.6919   25.7913  -77.3025 N.am      8 UNK        -0.4313 
     33 C         -72.8922   26.4816  -78.4333 C.2       8 UNK         0.5041 
     34 O         -72.0022   27.1001  -79.0194 O.2       8 UNK        -0.5577 
     35 CA        -74.3249   26.5128  -78.9836 C.3       7 UNK         0.0284 
     36 CB        -74.6667   25.1975  -79.7033 C.3       7 UNK        -0.1958 
     37 N         -75.2906   26.7588  -77.9129 N.am      7 UNK        -0.4454 
     38 C         -75.6311   27.9776  -77.4714 C.2       7 UNK         0.5089 
     39 O         -75.2338   29.0271  -77.9781 O.2       7 UNK        -0.5125 
     40 CA        -76.5693   28.0430  -76.2513 C.3       6 UNK         0.0408 
     41 CB        -78.0316   28.0916  -76.7126 C.3       6 UNK        -0.1791 
     42 N         -76.3893   26.9412  -75.2994 N.am      6 UNK        -0.4762 
     43 C         -75.2496   26.6902  -74.6381 C.2       6 UNK         0.5007 
     44 O         -74.2359   27.3793  -74.7461 O.2       6 UNK        -0.5032 
     45 CA        -75.1942   25.4151  -73.7742 C.3       5 UNK         0.0783 
     46 C46       -75.5914   25.6779  -72.2998 C.3       11 UNK        -0.0857 
     47 S47       -77.3907   25.6936  -71.9908 S.3       11 UNK        -0.2512 
     48 C48       -77.5126   26.8889  -70.6251 C.3       11 UNK         0.0225 
     49 N         -75.8910   24.2624  -74.3635 N.am      5 UNK        -0.4615 
     50 C         -75.6381   23.7297  -75.5647 C.2       4 UNK         0.5053 
     51 O         -74.8233   24.2060  -76.3544 O.2       4 UNK        -0.5105 
     52 CA        -76.4084   22.4652  -75.9802 C.3       4 UNK         0.0263 
     53 CB        -75.7086   21.2002  -75.4481 C.3       4 UNK        -0.1981 
     54 N         -77.8430   22.4633  -75.6630 N.am      4 UNK        -0.4224 
     55 C         -78.4605   22.4262  -74.4752 C.2       3 UNK         0.4895 
     56 O         -77.8656   22.4428  -73.3965 O.2       3 UNK        -0.5091 
     57 CA        -80.0038   22.3597  -74.5112 C.3       3 UNK         0.0250 
     58 CB        -80.6130   22.2070  -73.1052 C.3       3 UNK        -0.1996 
     59 N         -80.6173   23.5208  -75.1664 N.am      3 UNK        -0.4254 
     60 C         -80.5852   23.8025  -76.4775 C.2       2 UNK         0.5004 
     61 O         -80.0414   23.0657  -77.3026 O.2       2 UNK        -0.5226 
     62 CA        -81.2536   25.1036  -76.9783 C.3       2 UNK         0.0269 
     63 CB        -82.2361   24.8090  -78.1261 C.3       2 UNK        -0.1926 
     64 N         -81.9519   25.9033  -75.9637 N.am      2 UNK        -0.4687 
     65 C         -81.3723   26.5547  -74.9473 C.2       1 UNK         0.5165 
     66 O         -80.1639   26.4999  -74.7123 O.2       1 UNK        -0.5079 
     67 H67       -82.4130   25.3780  -69.9455 H         1 UNK         0.0900 
     68 H68       -80.7357   25.2391  -70.4809 H         1 UNK         0.0900 
     69 H69       -81.4269   26.8277  -70.1358 H         1 UNK         0.0900 
     70 H70       -81.6633   27.9143  -72.0977 H         1 UNK         0.2959 
     71 H71       -83.3219   26.9885  -74.1774 H         1 UNK         0.1079 
     72 H72       -82.7982   29.0215  -75.3371 H         1 UNK         0.0837 
     73 H73       -83.0185   29.4031  -73.6647 H         1 UNK         0.0837 
     74 H74       -80.6711   31.4397  -72.6692 H         1 UNK         0.0685 
     75 H75       -81.3232   29.9509  -72.0385 H         1 UNK         0.0685 
     76 H76       -79.7335   27.9390  -71.7133 H         1 UNK         0.1434 
     77 H77       -75.7176   28.9655  -70.6814 H         1 UNK         0.1329 
     78 H78       -78.2956   31.9148  -72.4344 H         1 UNK         0.1335 
     79 H79       -74.9771   31.2399  -70.8036 H         1 UNK         0.0680 
     80 H80       -76.1475   32.4999  -71.0693 H         1 UNK         0.0680 
     81 H81       -75.0298   29.4940  -73.2573 H         1 UNK         0.1032 
     82 H82       -74.6027   30.2598  -74.7381 H         1 UNK         0.1032 
     83 H83       -72.4709   31.0313  -73.0981 H         1 UNK         0.0461 
     84 H84       -71.5922   27.7280  -73.1803 H         1 UNK         0.3453 
     85 H85       -71.8003   27.4453  -71.4672 H         1 UNK         0.3453 
     86 H86       -72.6816   28.9359  -75.1547 H         1 UNK         0.2984 
     87 H87       -70.5588   29.9971  -76.9694 H         1 UNK         0.0554 
     88 H88       -68.3223   30.1793  -75.9302 H         1 UNK         0.0847 
     89 H89       -68.3609   28.7959  -77.0064 H         1 UNK         0.0847 
     90 H90       -68.4611   28.5591  -75.2620 H         1 UNK         0.0847 
     91 H91       -71.1881   27.9387  -77.5325 H         1 UNK         0.3141 
     92 H92       -70.6472   25.4194  -77.3636 H         1 UNK         0.0743 
     93 H93       -70.5355   24.1659  -75.2358 H         1 UNK         0.0784 
     94 H94       -72.2277   24.5071  -74.9090 H         1 UNK         0.0784 
     95 H95       -71.7792   23.4889  -76.2746 H         1 UNK         0.0784 
     96 H96       -73.4874   25.3023  -76.8947 H         1 UNK         0.3213 
     97 H97       -74.3854   27.3200  -79.7173 H         1 UNK         0.0855 
     98 H98       -74.6197   24.3380  -79.0339 H         1 UNK         0.0814 
     99 H99       -73.9692   25.0105  -80.5208 H         1 UNK         0.0814 
    100 H100      -75.6675   25.2313  -80.1339 H         1 UNK         0.0814 
    101 H101      -75.6099   25.9512  -77.3931 H         1 UNK         0.3105 
    102 H102      -76.3554   28.9727  -75.7217 H         1 UNK         0.0547 
    103 H103      -78.6936   28.2963  -75.8738 H         1 UNK         0.0837 
    104 H104      -78.1888   28.8858  -77.4436 H         1 UNK         0.0837 
    105 H105      -78.3455   27.1539  -77.1716 H         1 UNK         0.0837 
    106 H106      -77.1855   26.3415  -75.1296 H         1 UNK         0.3020 
    107 H107      -74.1384   25.1398  -73.7568 H         1 UNK         0.1245 
    108 H108      -75.1439   26.6081  -71.9424 H         1 UNK         0.0781 
    109 H109      -75.1681   24.8929  -71.6715 H         1 UNK         0.0781 
    110 H110      -76.6323   26.8207  -69.9840 H         1 UNK         0.0836 
    111 H111      -78.3625   26.6155  -69.9981 H         1 UNK         0.0836 
    112 H112      -76.5874   23.8047  -73.7801 H         1 UNK         0.3022 
    113 H113      -76.3590   22.4254  -77.0697 H         1 UNK         0.0747 
    114 H114      -76.1935   20.2953  -75.8142 H         1 UNK         0.0793 
    115 H115      -74.6684   21.1653  -75.7751 H         1 UNK         0.0793 
    116 H116      -75.7055   21.1619  -74.3583 H         1 UNK         0.0793 
    117 H117      -78.4615   22.5221  -76.4703 H         1 UNK         0.3047 
    118 H118      -80.2701   21.4688  -75.0840 H         1 UNK         0.0822 
    119 H119      -80.2280   21.3173  -72.6052 H         1 UNK         0.0807 
    120 H120      -81.6979   22.1096  -73.1492 H         1 UNK         0.0807 
    121 H121      -80.3800   23.0643  -72.4719 H         1 UNK         0.0807 
    122 H122      -81.0519   24.1968  -74.5522 H         1 UNK         0.2946 
    123 H123      -80.4459   25.7199  -77.3788 H         1 UNK         0.1144 
    124 H124      -82.6457   25.7282  -78.5454 H         1 UNK         0.0793 
    125 H125      -83.0696   24.1895  -77.7926 H         1 UNK         0.0793 
    126 H126      -81.7438   24.2795  -78.9431 H         1 UNK         0.0793 
    127 H127      -82.9548   25.9661  -76.0677 H         1 UNK         0.2896 
@<TRIPOS>BOND
     1    1    2 1    
     2    1   67 1    
     3    1   68 1    
     4    1   69 1    
     5    2    3 2    
     6    2    4 am   BACKBONE|DICT|INTERRES
     7    4    5 1    
     8    4   70 1    
     9    5    6 1    
    10    5   65 1    
    11    5   71 1    
    12    6    7 1    
    13    6   72 1    
    14    6   73 1    
    15    7    8 1    
    16    8    9 1    
    17    8   74 1    
    18    8   75 1    
    19    9   10 ar   
    20    9   14 ar   
    21   10   11 ar   
    22   10   76 1    
    23   11   12 ar   
    24   11   48 1    
    25   12   13 ar   
    26   12   77 1    
    27   13   14 ar   
    28   13   15 1    
    29   14   78 1    
    30   15   16 1    
    31   15   79 1    
    32   15   80 1    
    33   16   17 1    
    34   17   18 1    
    35   17   81 1    
    36   17   82 1    
    37   18   19 1    
    38   18   22 1    
    39   18   83 1    
    40   19   20 am   BACKBONE|DICT|INTERRES
    41   19   21 2    
    42   20   84 1    
    43   20   85 1    
    44   22   23 am   BACKBONE|DICT|INTERRES
    45   22   86 1    
    46   23   24 2    
    47   23   25 1    
    48   25   26 1    
    49   25   27 1    
    50   25   87 1    
    51   26   88 1    
    52   26   89 1    
    53   26   90 1    
    54   27   28 am   BACKBONE|DICT|INTERRES
    55   27   91 1    
    56   28   29 2    
    57   28   30 1    
    58   30   31 1    
    59   30   32 1    
    60   30   92 1    
    61   31   93 1    
    62   31   94 1    
    63   31   95 1    
    64   32   33 am   BACKBONE|DICT|INTERRES
    65   32   96 1    
    66   33   34 2    
    67   33   35 1    
    68   35   36 1    
    69   35   37 1    
    70   35   97 1    
    71   36   98 1    
    72   36   99 1    
    73   36  100 1    
    74   37   38 am   BACKBONE|DICT|INTERRES
    75   37  101 1    
    76   38   39 2    
    77   38   40 1    
    78   40   41 1    
    79   40   42 1    
    80   40  102 1    
    81   41  103 1    
    82   41  104 1    
    83   41  105 1    
    84   42   43 am   BACKBONE|DICT|INTERRES
    85   42  106 1    
    86   43   44 2    
    87   43   45 1    
    88   45   46 1    
    89   45   49 1    
    90   45  107 1    
    91   46   47 1    
    92   46  108 1    
    93   46  109 1    
    94   47   48 1    
    95   48  110 1    
    96   48  111 1    
    97   49   50 am   BACKBONE|DICT|INTERRES
    98   49  112 1    
    99   50   51 2    
   100   50   52 1    
   101   52   53 1    
   102   52   54 1    
   103   52  113 1    
   104   53  114 1    
   105   53  115 1    
   106   53  116 1    
   107   54   55 am   BACKBONE|DICT|INTERRES
   108   54  117 1    
   109   55   56 2    
   110   55   57 1    
   111   57   58 1    
   112   57   59 1    
   113   57  118 1    
   114   58  119 1    
   115   58  120 1    
   116   58  121 1    
   117   59   60 am   BACKBONE|DICT|INTERRES
   118   59  122 1    
   119   60   61 2    
   120   60   62 1    
   121   62   63 1    
   122   62   64 1    
   123   62  123 1    
   124   63  124 1    
   125   63  125 1    
   126   63  126 1    
   127   64   65 am   BACKBONE|DICT|INTERRES
   128   64  127 1    
   129   65   66 2    
@<TRIPOS>SUBSTRUCTURE
     1 UNK         1 GROUP             0       ****    0 ROOT    
