@<TRIPOS>MOLECULE
3R135
127   129    1
SMALL
USER_CHARGES


@<TRIPOS>ATOM
      1 CA        -73.7822   25.1994  -70.0130 C.3       0 UNK        -0.1998 
      2 C         -75.2884   24.9833  -70.0452 C.2       0 UNK         0.4909 
      3 O         -75.7818   24.0728  -69.3783 O.2       0 UNK        -0.5240 
      4 N         -76.0247   25.8129  -70.7982 N.am      1 UNK        -0.4739 
      5 CA        -77.4754   25.7020  -70.9792 C.3       1 UNK         0.0864 
      6 C6        -78.0790   26.9580  -71.6605 C.3       11 UNK        -0.0881 
      7 S7        -79.9083   26.9482  -71.6035 S.3       11 UNK        -0.2682 
      8 C8        -80.3173   28.7175  -71.4607 C.3       11 UNK         0.0289 
      9 C9        -80.0236   29.4742  -72.7480 C.ar      11 UNK        -0.0687 
     10 C10       -80.7088   29.1542  -73.9235 C.ar      11 UNK        -0.0823 
     11 C11       -80.4200   29.8212  -75.1170 C.ar      11 UNK        -0.0830 
     12 C12       -79.4534   30.8301  -75.1277 C.ar      11 UNK        -0.1021 
     13 C13       -78.7653   31.1614  -73.9585 C.ar      11 UNK        -0.0753 
     14 C14       -79.0647   30.4902  -72.7680 C.ar      11 UNK        -0.0933 
     15 C15       -77.6728   32.2200  -73.9952 C.3       11 UNK         0.0166 
     16 S16       -76.1077   31.5278  -74.6211 S.3       11 UNK        -0.2615 
     17 C17       -75.7670   30.2620  -73.3529 C.3       11 UNK        -0.0865 
     18 CA        -74.2678   30.1248  -73.0060 C.3       10 UNK         0.0862 
     19 C         -74.0842   29.1523  -71.8140 C.2       10 UNK         0.5551 
     20 N         -73.4417   29.5859  -70.7391 N.am      10 UNK        -0.7319 
     21 O         -74.5670   28.0232  -71.8483 O.2       10 UNK        -0.5018 
     22 N         -73.4847   29.6621  -74.1545 N.am      10 UNK        -0.4509 
     23 C         -72.1559   29.7981  -74.2579 C.2       10 UNK         0.4899 
     24 O         -71.4735   30.4682  -73.4804 O.2       10 UNK        -0.4839 
     25 CA        -71.4824   29.0412  -75.4186 C.3       9 UNK         0.0222 
     26 CB        -69.9434   28.9996  -75.3093 C.3       9 UNK        -0.1966 
     27 N         -72.0350   27.6930  -75.5887 N.am      9 UNK        -0.4218 
     28 C         -72.0612   26.6969  -74.6863 C.2       9 UNK         0.5020 
     29 O         -71.4858   26.7424  -73.5983 O.2       9 UNK        -0.5274 
     30 CA        -72.8851   25.4421  -75.0358 C.3       8 UNK         0.0270 
     31 CB        -74.0223   25.2420  -74.0171 C.3       8 UNK        -0.1976 
     32 N         -73.4484   25.5032  -76.3889 N.am      8 UNK        -0.4313 
     33 C         -72.8332   25.0405  -77.4876 C.2       8 UNK         0.5041 
     34 O         -71.7996   24.3719  -77.4600 O.2       8 UNK        -0.5577 
     35 CA        -73.4338   25.4253  -78.8535 C.3       7 UNK         0.0284 
     36 CB        -74.2398   24.2656  -79.4591 C.3       7 UNK        -0.1958 
     37 N         -74.2541   26.6422  -78.8003 N.am      7 UNK        -0.4454 
     38 C         -73.7373   27.8733  -78.6547 C.2       7 UNK         0.5089 
     39 O         -72.5290   28.0905  -78.5787 O.2       7 UNK        -0.5125 
     40 CA        -74.7051   29.0618  -78.5133 C.3       6 UNK         0.0408 
     41 CB        -74.8822   29.7716  -79.8641 C.3       6 UNK        -0.1791 
     42 N         -76.0192   28.7034  -77.9794 N.am      6 UNK        -0.4762 
     43 C         -76.2498   28.1913  -76.7621 C.2       6 UNK         0.5007 
     44 O         -75.3537   27.9690  -75.9428 O.2       6 UNK        -0.5032 
     45 CA        -77.7088   27.8120  -76.4191 C.3       5 UNK         0.0783 
     46 C46       -78.7519   28.2973  -77.4740 C.3       11 UNK        -0.0857 
     47 S47       -80.4722   27.8520  -77.0470 S.3       11 UNK        -0.2512 
     48 C48       -81.1265   29.4223  -76.4012 C.3       11 UNK         0.0225 
     49 N         -77.8109   26.3731  -76.1526 N.am      5 UNK        -0.4615 
     50 C         -77.5344   25.3822  -77.0130 C.2       4 UNK         0.5053 
     51 O         -77.0310   25.5603  -78.1230 O.2       4 UNK        -0.5105 
     52 CA        -77.8991   23.9533  -76.5762 C.3       4 UNK         0.0263 
     53 CB        -76.6597   23.1857  -76.0962 C.3       4 UNK        -0.1981 
     54 N         -78.9067   23.9406  -75.5132 N.am      4 UNK        -0.4224 
     55 C         -80.2310   24.0160  -75.7194 C.2       3 UNK         0.4895 
     56 O         -80.7380   24.0539  -76.8416 O.2       3 UNK        -0.5091 
     57 CA        -81.1472   24.0771  -74.4760 C.3       3 UNK         0.0250 
     58 CB        -82.4908   23.3493  -74.6943 C.3       3 UNK        -0.1996 
     59 N         -80.5013   23.6303  -73.2346 N.am      3 UNK        -0.4254 
     60 C         -79.9961   22.4160  -72.9615 C.2       2 UNK         0.5004 
     61 O         -80.1212   21.4390  -73.7012 O.2       2 UNK        -0.5226 
     62 CA        -79.1818   22.2825  -71.6562 C.3       2 UNK         0.0269 
     63 CB        -78.0343   21.2583  -71.7914 C.3       2 UNK        -0.1926 
     64 N         -78.6635   23.5589  -71.1349 N.am      2 UNK        -0.4687 
     65 C         -77.8319   24.4145  -71.7525 C.2       1 UNK         0.5165 
     66 O         -77.4043   24.2557  -72.8986 O.2       1 UNK        -0.5079 
     67 H67       -73.4512   25.3801  -68.9909 H         1 UNK         0.0900 
     68 H68       -73.4720   26.0467  -70.6220 H         1 UNK         0.0900 
     69 H69       -73.2699   24.3129  -70.3855 H         1 UNK         0.0900 
     70 H70       -75.5593   26.5595  -71.3117 H         1 UNK         0.2959 
     71 H71       -77.9066   25.6341  -69.9777 H         1 UNK         0.1079 
     72 H72       -77.7501   27.0437  -72.6982 H         1 UNK         0.0837 
     73 H73       -77.7188   27.8560  -71.1560 H         1 UNK         0.0837 
     74 H74       -81.3789   28.8145  -71.2295 H         1 UNK         0.0685 
     75 H75       -79.7785   29.1475  -70.6149 H         1 UNK         0.0685 
     76 H76       -81.4471   28.3638  -73.9151 H         1 UNK         0.1434 
     77 H77       -79.2146   31.3415  -76.0504 H         1 UNK         0.1329 
     78 H78       -78.5383   30.7453  -71.8589 H         1 UNK         0.1335 
     79 H79       -77.9796   33.0451  -74.6397 H         1 UNK         0.0680 
     80 H80       -77.5141   32.6481  -73.0041 H         1 UNK         0.0680 
     81 H81       -76.3099   30.5260  -72.4452 H         1 UNK         0.1032 
     82 H82       -76.1818   29.3094  -73.6879 H         1 UNK         0.1032 
     83 H83       -73.9051   31.1125  -72.7132 H         1 UNK         0.0461 
     84 H84       -73.3301   28.9688  -69.9510 H         1 UNK         0.3453 
     85 H85       -73.0352   30.5081  -70.7163 H         1 UNK         0.3453 
     86 H86       -73.9792   29.0708  -74.8133 H         1 UNK         0.2984 
     87 H87       -71.7331   29.5917  -76.3263 H         1 UNK         0.0554 
     88 H88       -69.5252   30.0069  -75.3062 H         1 UNK         0.0847 
     89 H89       -69.5008   28.4687  -76.1521 H         1 UNK         0.0847 
     90 H90       -69.6139   28.5093  -74.3928 H         1 UNK         0.0847 
     91 H91       -72.4922   27.5348  -76.4771 H         1 UNK         0.3141 
     92 H92       -72.2088   24.5889  -74.9518 H         1 UNK         0.0743 
     93 H93       -74.8263   25.9677  -74.1458 H         1 UNK         0.0784 
     94 H94       -74.4451   24.2426  -74.0938 H         1 UNK         0.0784 
     95 H95       -73.6603   25.3435  -72.9940 H         1 UNK         0.0784 
     96 H96       -74.2849   26.0646  -76.4968 H         1 UNK         0.3213 
     97 H97       -72.5931   25.6195  -79.5238 H         1 UNK         0.0855 
     98 H98       -73.6214   23.3722  -79.5561 H         1 UNK         0.0814 
     99 H99       -74.6053   24.5150  -80.4553 H         1 UNK         0.0814 
    100 H100      -75.0981   23.9985  -78.8465 H         1 UNK         0.0814 
    101 H101      -75.2619   26.5190  -78.8071 H         1 UNK         0.3105 
    102 H102      -74.2511   29.7685  -77.8150 H         1 UNK         0.0547 
    103 H103      -73.9182   30.0780  -80.2730 H         1 UNK         0.0837 
    104 H104      -75.3575   29.1245  -80.6024 H         1 UNK         0.0837 
    105 H105      -75.4886   30.6720  -79.7642 H         1 UNK         0.0837 
    106 H106      -76.8022   28.8223  -78.6055 H         1 UNK         0.3020 
    107 H107      -77.9274   28.3165  -75.4765 H         1 UNK         0.1245 
    108 H108      -78.5499   27.8547  -78.4510 H         1 UNK         0.0781 
    109 H109      -78.6907   29.3784  -77.6098 H         1 UNK         0.0781 
    110 H110      -82.1947   29.3104  -76.2097 H         1 UNK         0.0836 
    111 H111      -81.0318   30.2000  -77.1607 H         1 UNK         0.0836 
    112 H112      -78.1927   26.1211  -75.2539 H         1 UNK         0.3022 
    113 H113      -78.2947   23.4368  -77.4533 H         1 UNK         0.0747 
    114 H114      -75.8706   23.1854  -76.8470 H         1 UNK         0.0793 
    115 H115      -76.2502   23.6265  -75.1908 H         1 UNK         0.0793 
    116 H116      -76.9006   22.1451  -75.8781 H         1 UNK         0.0793 
    117 H117      -78.5544   23.9116  -74.5611 H         1 UNK         0.3047 
    118 H118      -81.3693   25.1356  -74.3299 H         1 UNK         0.0822 
    119 H119      -82.3474   22.2937  -74.9265 H         1 UNK         0.0807 
    120 H120      -83.0450   23.7904  -75.5237 H         1 UNK         0.0807 
    121 H121      -83.1266   23.4161  -73.8115 H         1 UNK         0.0807 
    122 H122      -80.3386   24.3565  -72.5498 H         1 UNK         0.2946 
    123 H123      -79.8797   21.9022  -70.9083 H         1 UNK         0.1144 
    124 H124      -77.4696   21.1705  -70.8632 H         1 UNK         0.0793 
    125 H125      -77.3366   21.5352  -72.5827 H         1 UNK         0.0793 
    126 H126      -78.4181   20.2655  -72.0297 H         1 UNK         0.0793 
    127 H127      -78.9733   23.7958  -70.2018 H         1 UNK         0.2896 
@<TRIPOS>BOND
     1    1    2 1    
     2    1   67 1    
     3    1   68 1    
     4    1   69 1    
     5    2    3 2    
     6    2    4 am   BACKBONE|DICT|INTERRES
     7    4    5 1    
     8    4   70 1    
     9    5    6 1    
    10    5   65 1    
    11    5   71 1    
    12    6    7 1    
    13    6   72 1    
    14    6   73 1    
    15    7    8 1    
    16    8    9 1    
    17    8   74 1    
    18    8   75 1    
    19    9   10 ar   
    20    9   14 ar   
    21   10   11 ar   
    22   10   76 1    
    23   11   12 ar   
    24   11   48 1    
    25   12   13 ar   
    26   12   77 1    
    27   13   14 ar   
    28   13   15 1    
    29   14   78 1    
    30   15   16 1    
    31   15   79 1    
    32   15   80 1    
    33   16   17 1    
    34   17   18 1    
    35   17   81 1    
    36   17   82 1    
    37   18   19 1    
    38   18   22 1    
    39   18   83 1    
    40   19   20 am   BACKBONE|DICT|INTERRES
    41   19   21 2    
    42   20   84 1    
    43   20   85 1    
    44   22   23 am   BACKBONE|DICT|INTERRES
    45   22   86 1    
    46   23   24 2    
    47   23   25 1    
    48   25   26 1    
    49   25   27 1    
    50   25   87 1    
    51   26   88 1    
    52   26   89 1    
    53   26   90 1    
    54   27   28 am   BACKBONE|DICT|INTERRES
    55   27   91 1    
    56   28   29 2    
    57   28   30 1    
    58   30   31 1    
    59   30   32 1    
    60   30   92 1    
    61   31   93 1    
    62   31   94 1    
    63   31   95 1    
    64   32   33 am   BACKBONE|DICT|INTERRES
    65   32   96 1    
    66   33   34 2    
    67   33   35 1    
    68   35   36 1    
    69   35   37 1    
    70   35   97 1    
    71   36   98 1    
    72   36   99 1    
    73   36  100 1    
    74   37   38 am   BACKBONE|DICT|INTERRES
    75   37  101 1    
    76   38   39 2    
    77   38   40 1    
    78   40   41 1    
    79   40   42 1    
    80   40  102 1    
    81   41  103 1    
    82   41  104 1    
    83   41  105 1    
    84   42   43 am   BACKBONE|DICT|INTERRES
    85   42  106 1    
    86   43   44 2    
    87   43   45 1    
    88   45   46 1    
    89   45   49 1    
    90   45  107 1    
    91   46   47 1    
    92   46  108 1    
    93   46  109 1    
    94   47   48 1    
    95   48  110 1    
    96   48  111 1    
    97   49   50 am   BACKBONE|DICT|INTERRES
    98   49  112 1    
    99   50   51 2    
   100   50   52 1    
   101   52   53 1    
   102   52   54 1    
   103   52  113 1    
   104   53  114 1    
   105   53  115 1    
   106   53  116 1    
   107   54   55 am   BACKBONE|DICT|INTERRES
   108   54  117 1    
   109   55   56 2    
   110   55   57 1    
   111   57   58 1    
   112   57   59 1    
   113   57  118 1    
   114   58  119 1    
   115   58  120 1    
   116   58  121 1    
   117   59   60 am   BACKBONE|DICT|INTERRES
   118   59  122 1    
   119   60   61 2    
   120   60   62 1    
   121   62   63 1    
   122   62   64 1    
   123   62  123 1    
   124   63  124 1    
   125   63  125 1    
   126   63  126 1    
   127   64   65 am   BACKBONE|DICT|INTERRES
   128   64  127 1    
   129   65   66 2    
@<TRIPOS>SUBSTRUCTURE
     1 UNK         1 GROUP             0       ****    0 ROOT    
