@<TRIPOS>MOLECULE
3R135
127   129    1
SMALL
USER_CHARGES


@<TRIPOS>ATOM
      1 CA        -81.3141   29.0500  -74.9371 C.3       0 UNK        -0.1998 
      2 C         -82.5283   28.8455  -74.0364 C.2       0 UNK         0.4909 
      3 O         -83.5875   29.4031  -74.3162 O.2       0 UNK        -0.5240 
      4 N         -82.4347   28.0687  -72.9474 N.am      1 UNK        -0.4739 
      5 CA        -81.2604   27.3073  -72.4900 C.3       1 UNK         0.0864 
      6 C6        -81.3751   26.9251  -70.9913 C.3       11 UNK        -0.0881 
      7 S7        -81.5787   28.3856  -69.9126 S.3       11 UNK        -0.2682 
      8 C8        -79.9440   28.5110  -69.1105 C.3       11 UNK         0.0289 
      9 C9        -78.7956   28.6253  -70.1068 C.ar      11 UNK        -0.0687 
     10 C10       -78.8113   29.6069  -71.1017 C.ar      11 UNK        -0.0823 
     11 C11       -77.7817   29.6869  -72.0423 C.ar      11 UNK        -0.0830 
     12 C12       -76.6997   28.8062  -71.9388 C.ar      11 UNK        -0.1021 
     13 C13       -76.6549   27.8249  -70.9412 C.ar      11 UNK        -0.0753 
     14 C14       -77.7146   27.7420  -70.0334 C.ar      11 UNK        -0.0933 
     15 C15       -75.5112   26.8154  -70.8098 C.3       11 UNK         0.0166 
     16 S16       -74.1316   26.9828  -71.9973 S.3       11 UNK        -0.2615 
     17 C17       -73.2127   28.4197  -71.3372 C.3       11 UNK        -0.0865 
     18 CA        -73.0239   29.5707  -72.3644 C.3       10 UNK         0.0862 
     19 C         -72.2391   30.7534  -71.7250 C.2       10 UNK         0.5551 
     20 N         -71.0478   31.0975  -72.1993 N.am      10 UNK        -0.7319 
     21 O         -72.7242   31.3711  -70.7805 O.2       10 UNK        -0.5018 
     22 N         -72.4710   29.0783  -73.6361 N.am      10 UNK        -0.4509 
     23 C         -72.5289   29.7084  -74.8140 C.2       10 UNK         0.4899 
     24 O         -73.0515   30.8124  -74.9670 O.2       10 UNK        -0.4839 
     25 CA        -71.9060   29.0049  -76.0385 C.3       9 UNK         0.0222 
     26 CB        -70.4993   29.5628  -76.3341 C.3       9 UNK        -0.1966 
     27 N         -71.9020   27.5311  -75.9943 N.am      9 UNK        -0.4218 
     28 C         -71.2078   26.7169  -75.1844 C.2       9 UNK         0.5020 
     29 O         -70.4621   27.1243  -74.2926 O.2       9 UNK        -0.5274 
     30 CA        -71.3756   25.1994  -75.3693 C.3       8 UNK         0.0270 
     31 CB        -71.7055   24.5118  -74.0315 C.3       8 UNK        -0.1976 
     32 N         -72.4162   24.8522  -76.3422 N.am      8 UNK        -0.4313 
     33 C         -72.1868   24.3017  -77.5408 C.2       8 UNK         0.5041 
     34 O         -71.0619   24.1211  -78.0097 O.2       8 UNK        -0.5577 
     35 CA        -73.4123   23.8442  -78.3479 C.3       7 UNK         0.0284 
     36 CB        -73.9348   22.5000  -77.8144 C.3       7 UNK        -0.1958 
     37 N         -74.5085   24.8133  -78.3725 N.am      7 UNK        -0.4454 
     38 C         -74.4879   25.9735  -79.0420 C.2       7 UNK         0.5089 
     39 O         -73.5045   26.4022  -79.6457 O.2       7 UNK        -0.5125 
     40 CA        -75.7919   26.7887  -79.0455 C.3       6 UNK         0.0408 
     41 CB        -76.8209   26.1816  -80.0133 C.3       6 UNK        -0.1791 
     42 N         -76.3677   26.8862  -77.7040 N.am      6 UNK        -0.4762 
     43 C         -75.9278   27.7409  -76.7693 C.2       6 UNK         0.5007 
     44 O         -75.0550   28.5801  -76.9843 O.2       6 UNK        -0.5032 
     45 CA        -76.5321   27.6226  -75.3520 C.3       5 UNK         0.0783 
     46 C46       -77.6886   28.6333  -75.1310 C.3       11 UNK        -0.0857 
     47 S47       -77.0502   30.3001  -74.7292 S.3       11 UNK        -0.2512 
     48 C48       -77.8735   30.7340  -73.1526 C.3       11 UNK         0.0225 
     49 N         -76.9224   26.2494  -75.0109 N.am      5 UNK        -0.4615 
     50 C         -76.0523   25.2354  -74.9012 C.2       4 UNK         0.5053 
     51 O         -74.8416   25.3490  -75.0828 O.2       4 UNK        -0.5105 
     52 CA        -76.6313   23.8437  -74.6134 C.3       4 UNK         0.0263 
     53 CB        -76.8764   23.6575  -73.1080 C.3       4 UNK        -0.1981 
     54 N         -77.8561   23.5599  -75.3674 N.am      4 UNK        -0.4224 
     55 C         -77.9431   23.5406  -76.7077 C.2       3 UNK         0.4895 
     56 O         -76.9995   23.8052  -77.4521 O.2       3 UNK        -0.5091 
     57 CA        -79.2960   23.1673  -77.3385 C.3       3 UNK         0.0250 
     58 CB        -79.2506   21.7305  -77.8828 C.3       3 UNK        -0.1996 
     59 N         -80.4211   23.2960  -76.4104 N.am      3 UNK        -0.4254 
     60 C         -80.9560   24.4624  -76.0269 C.2       2 UNK         0.5004 
     61 O         -80.6101   25.5519  -76.4905 O.2       2 UNK        -0.5226 
     62 CA        -82.0528   24.4048  -74.9413 C.3       2 UNK         0.0269 
     63 CB        -82.0208   23.1137  -74.0902 C.3       2 UNK        -0.1926 
     64 N         -82.0376   25.5788  -74.0598 N.am      2 UNK        -0.4687 
     65 C         -81.0043   26.0445  -73.3385 C.2       1 UNK         0.5165 
     66 O         -79.8846   25.5317  -73.3265 O.2       1 UNK        -0.5079 
     67 H67       -80.4898   29.4877  -74.3784 H         1 UNK         0.0900 
     68 H68       -81.5551   29.7314  -75.7528 H         1 UNK         0.0900 
     69 H69       -80.9864   28.1107  -75.3809 H         1 UNK         0.0900 
     70 H70       -83.2467   27.9871  -72.3518 H         1 UNK         0.2959 
     71 H71       -80.3757   27.9335  -72.6048 H         1 UNK         0.1079 
     72 H72       -82.2296   26.2652  -70.8292 H         1 UNK         0.0837 
     73 H73       -80.4970   26.3621  -70.6678 H         1 UNK         0.0837 
     74 H74       -79.9364   29.3880  -68.4622 H         1 UNK         0.0685 
     75 H75       -79.8096   27.6456  -68.4596 H         1 UNK         0.0685 
     76 H76       -79.6478   30.2904  -71.1592 H         1 UNK         0.1434 
     77 H77       -75.9020   28.8795  -72.6569 H         1 UNK         0.1329 
     78 H78       -77.6971   26.9806  -69.2653 H         1 UNK         0.1335 
     79 H79       -75.1094   26.8531  -69.7962 H         1 UNK         0.0680 
     80 H80       -75.9300   25.8161  -70.9346 H         1 UNK         0.0680 
     81 H81       -72.2414   28.0604  -70.9922 H         1 UNK         0.1032 
     82 H82       -73.7262   28.7935  -70.4492 H         1 UNK         0.1032 
     83 H83       -74.0089   29.9785  -72.5910 H         1 UNK         0.0461 
     84 H84       -70.5494   31.8664  -71.7798 H         1 UNK         0.3453 
     85 H85       -70.6454   30.5930  -72.9727 H         1 UNK         0.3453 
     86 H86       -71.9545   28.2065  -73.5961 H         1 UNK         0.2984 
     87 H87       -72.5332   29.2652  -76.8916 H         1 UNK         0.0554 
     88 H88       -70.0817   29.1259  -77.2411 H         1 UNK         0.0847 
     89 H89       -69.8019   29.3729  -75.5180 H         1 UNK         0.0847 
     90 H90       -70.5340   30.6429  -76.4822 H         1 UNK         0.0847 
     91 H91       -72.5161   27.0863  -76.6625 H         1 UNK         0.3141 
     92 H92       -70.4060   24.8236  -75.7017 H         1 UNK         0.0743 
     93 H93       -72.6426   24.8765  -73.6105 H         1 UNK         0.0784 
     94 H94       -71.7921   23.4320  -74.1525 H         1 UNK         0.0784 
     95 H95       -70.9249   24.6910  -73.2910 H         1 UNK         0.0784 
     96 H96       -73.3778   24.9779  -76.0202 H         1 UNK         0.3213 
     97 H97       -73.0852   23.6896  -79.3786 H         1 UNK         0.0855 
     98 H98       -74.3090   22.5889  -76.7941 H         1 UNK         0.0814 
     99 H99       -73.1455   21.7471  -77.8094 H         1 UNK         0.0814 
    100 H100      -74.7456   22.1160  -78.4338 H         1 UNK         0.0814 
    101 H101      -75.3811   24.5234  -77.9340 H         1 UNK         0.3105 
    102 H102      -75.5586   27.7938  -79.4041 H         1 UNK         0.0547 
    103 H103      -76.4177   26.1314  -81.0256 H         1 UNK         0.0837 
    104 H104      -77.1070   25.1688  -79.7291 H         1 UNK         0.0837 
    105 H105      -77.7275   26.7851  -80.0567 H         1 UNK         0.0837 
    106 H106      -77.0470   26.1845  -77.4428 H         1 UNK         0.3020 
    107 H107      -75.7183   27.8715  -74.6672 H         1 UNK         0.1245 
    108 H108      -78.3265   28.2965  -74.3136 H         1 UNK         0.0781 
    109 H109      -78.3407   28.6955  -76.0045 H         1 UNK         0.0781 
    110 H110      -78.9185   30.9577  -73.3693 H         1 UNK         0.0836 
    111 H111      -77.4361   31.6625  -72.7839 H         1 UNK         0.0836 
    112 H112      -77.9036   26.0691  -74.8444 H         1 UNK         0.3022 
    113 H113      -75.8850   23.1097  -74.9237 H         1 UNK         0.0747 
    114 H114      -77.2350   22.6531  -72.8830 H         1 UNK         0.0793 
    115 H115      -75.9526   23.8044  -72.5465 H         1 UNK         0.0793 
    116 H116      -77.6052   24.3705  -72.7220 H         1 UNK         0.0793 
    117 H117      -78.6878   23.3714  -74.8274 H         1 UNK         0.3047 
    118 H118      -79.4594   23.8452  -78.1795 H         1 UNK         0.0822 
    119 H119      -80.1756   21.4716  -78.3984 H         1 UNK         0.0807 
    120 H120      -79.0916   21.0005  -77.0881 H         1 UNK         0.0807 
    121 H121      -78.4380   21.6114  -78.6012 H         1 UNK         0.0807 
    122 H122      -80.7699   22.4433  -75.9963 H         1 UNK         0.2946 
    123 H123      -83.0038   24.4312  -75.4759 H         1 UNK         0.1144 
    124 H124      -82.2203   22.2273  -74.6934 H         1 UNK         0.0793 
    125 H125      -82.7861   23.1389  -73.3141 H         1 UNK         0.0793 
    126 H126      -81.0585   22.9744  -73.5956 H         1 UNK         0.0793 
    127 H127      -82.8988   26.1064  -74.0202 H         1 UNK         0.2896 
@<TRIPOS>BOND
     1    1    2 1    
     2    1   67 1    
     3    1   68 1    
     4    1   69 1    
     5    2    3 2    
     6    2    4 am   BACKBONE|DICT|INTERRES
     7    4    5 1    
     8    4   70 1    
     9    5    6 1    
    10    5   65 1    
    11    5   71 1    
    12    6    7 1    
    13    6   72 1    
    14    6   73 1    
    15    7    8 1    
    16    8    9 1    
    17    8   74 1    
    18    8   75 1    
    19    9   10 ar   
    20    9   14 ar   
    21   10   11 ar   
    22   10   76 1    
    23   11   12 ar   
    24   11   48 1    
    25   12   13 ar   
    26   12   77 1    
    27   13   14 ar   
    28   13   15 1    
    29   14   78 1    
    30   15   16 1    
    31   15   79 1    
    32   15   80 1    
    33   16   17 1    
    34   17   18 1    
    35   17   81 1    
    36   17   82 1    
    37   18   19 1    
    38   18   22 1    
    39   18   83 1    
    40   19   20 am   BACKBONE|DICT|INTERRES
    41   19   21 2    
    42   20   84 1    
    43   20   85 1    
    44   22   23 am   BACKBONE|DICT|INTERRES
    45   22   86 1    
    46   23   24 2    
    47   23   25 1    
    48   25   26 1    
    49   25   27 1    
    50   25   87 1    
    51   26   88 1    
    52   26   89 1    
    53   26   90 1    
    54   27   28 am   BACKBONE|DICT|INTERRES
    55   27   91 1    
    56   28   29 2    
    57   28   30 1    
    58   30   31 1    
    59   30   32 1    
    60   30   92 1    
    61   31   93 1    
    62   31   94 1    
    63   31   95 1    
    64   32   33 am   BACKBONE|DICT|INTERRES
    65   32   96 1    
    66   33   34 2    
    67   33   35 1    
    68   35   36 1    
    69   35   37 1    
    70   35   97 1    
    71   36   98 1    
    72   36   99 1    
    73   36  100 1    
    74   37   38 am   BACKBONE|DICT|INTERRES
    75   37  101 1    
    76   38   39 2    
    77   38   40 1    
    78   40   41 1    
    79   40   42 1    
    80   40  102 1    
    81   41  103 1    
    82   41  104 1    
    83   41  105 1    
    84   42   43 am   BACKBONE|DICT|INTERRES
    85   42  106 1    
    86   43   44 2    
    87   43   45 1    
    88   45   46 1    
    89   45   49 1    
    90   45  107 1    
    91   46   47 1    
    92   46  108 1    
    93   46  109 1    
    94   47   48 1    
    95   48  110 1    
    96   48  111 1    
    97   49   50 am   BACKBONE|DICT|INTERRES
    98   49  112 1    
    99   50   51 2    
   100   50   52 1    
   101   52   53 1    
   102   52   54 1    
   103   52  113 1    
   104   53  114 1    
   105   53  115 1    
   106   53  116 1    
   107   54   55 am   BACKBONE|DICT|INTERRES
   108   54  117 1    
   109   55   56 2    
   110   55   57 1    
   111   57   58 1    
   112   57   59 1    
   113   57  118 1    
   114   58  119 1    
   115   58  120 1    
   116   58  121 1    
   117   59   60 am   BACKBONE|DICT|INTERRES
   118   59  122 1    
   119   60   61 2    
   120   60   62 1    
   121   62   63 1    
   122   62   64 1    
   123   62  123 1    
   124   63  124 1    
   125   63  125 1    
   126   63  126 1    
   127   64   65 am   BACKBONE|DICT|INTERRES
   128   64  127 1    
   129   65   66 2    
@<TRIPOS>SUBSTRUCTURE
     1 UNK         1 GROUP             0       ****    0 ROOT    
