@<TRIPOS>MOLECULE
3R135
127   129    1
SMALL
USER_CHARGES


@<TRIPOS>ATOM
      1 CA        -84.6548   23.5935  -69.7947 C.3       0 UNK        -0.1998 
      2 C         -83.7997   24.8175  -70.0862 C.2       0 UNK         0.4909 
      3 O         -84.3147   25.9357  -70.0911 O.2       0 UNK        -0.5240 
      4 N         -82.4964   24.6136  -70.3245 N.am      1 UNK        -0.4739 
      5 CA        -81.5267   25.6676  -70.6520 C.3       1 UNK         0.0864 
      6 C6        -80.0742   25.1363  -70.5275 C.3       11 UNK        -0.0881 
      7 S7        -78.8161   26.4559  -70.3942 S.3       11 UNK        -0.2682 
      8 C8        -77.8153   26.2173  -71.9005 C.3       11 UNK         0.0289 
      9 C9        -77.7419   27.4947  -72.7223 C.ar      11 UNK        -0.0687 
     10 C10       -78.7713   27.8138  -73.6098 C.ar      11 UNK        -0.0823 
     11 C11       -78.7187   28.9781  -74.3807 C.ar      11 UNK        -0.0830 
     12 C12       -77.6150   29.8283  -74.2626 C.ar      11 UNK        -0.1021 
     13 C13       -76.5689   29.5112  -73.3901 C.ar      11 UNK        -0.0753 
     14 C14       -76.6410   28.3493  -72.6152 C.ar      11 UNK        -0.0933 
     15 C15       -75.3476   30.4099  -73.3057 C.3       11 UNK         0.0166 
     16 S16       -74.1019   29.8863  -74.5170 S.3       11 UNK        -0.2615 
     17 C17       -72.8623   31.2092  -74.3258 C.3       11 UNK        -0.0865 
     18 CA        -71.5748   30.9334  -75.1561 C.3       10 UNK         0.0862 
     19 C         -70.6171   32.1634  -75.2238 C.2       10 UNK         0.5551 
     20 N         -69.3117   31.9718  -75.3714 N.am      10 UNK        -0.7319 
     21 O         -71.0609   33.3083  -75.1768 O.2       10 UNK        -0.5018 
     22 N         -70.9286   29.6562  -74.7977 N.am      10 UNK        -0.4509 
     23 C         -70.3338   29.3806  -73.6283 C.2       10 UNK         0.4899 
     24 O         -70.2298   30.1870  -72.7018 O.2       10 UNK        -0.4839 
     25 CA        -69.7550   27.9602  -73.4808 C.3       9 UNK         0.0222 
     26 CB        -69.0754   27.7249  -72.1148 C.3       9 UNK        -0.1966 
     27 N         -70.7446   26.9111  -73.7482 N.am      9 UNK        -0.4218 
     28 C         -71.9210   26.7037  -73.1383 C.2       9 UNK         0.5020 
     29 O         -72.3522   27.4023  -72.2191 O.2       9 UNK        -0.5274 
     30 CA        -72.7401   25.4890  -73.6302 C.3       8 UNK         0.0270 
     31 CB        -74.1203   25.3945  -72.9544 C.3       8 UNK        -0.1976 
     32 N         -72.9236   25.4649  -75.0861 N.am      8 UNK        -0.4313 
     33 C         -71.9828   25.1523  -75.9879 C.2       8 UNK         0.5041 
     34 O         -70.8329   24.8298  -75.6838 O.2       8 UNK        -0.5577 
     35 CA        -72.3614   25.2635  -77.4733 C.3       7 UNK         0.0284 
     36 CB        -73.1110   24.0061  -77.9419 C.3       7 UNK        -0.1958 
     37 N         -73.1576   26.4525  -77.7815 N.am      7 UNK        -0.4454 
     38 C         -72.7666   27.7246  -77.6259 C.2       7 UNK         0.5089 
     39 O         -71.6594   28.0544  -77.1971 O.2       7 UNK        -0.5125 
     40 CA        -73.7878   28.8205  -77.9897 C.3       6 UNK         0.0408 
     41 CB        -73.7628   29.1392  -79.4971 C.3       6 UNK        -0.1791 
     42 N         -75.1456   28.5485  -77.4930 N.am      6 UNK        -0.4762 
     43 C         -76.0113   27.6113  -77.9032 C.2       6 UNK         0.5007 
     44 O         -75.8216   26.8789  -78.8775 O.2       6 UNK        -0.5032 
     45 CA        -77.2740   27.4177  -77.0411 C.3       5 UNK         0.0783 
     46 C46       -78.4602   28.2403  -77.6027 C.3       11 UNK        -0.0857 
     47 S47       -80.0034   28.0238  -76.6525 S.3       11 UNK        -0.2512 
     48 C48       -79.8433   29.2965  -75.3563 C.3       11 UNK         0.0225 
     49 N         -77.5863   25.9931  -76.8755 N.am      5 UNK        -0.4615 
     50 C         -76.7768   25.1218  -76.2603 C.2       4 UNK         0.5053 
     51 O         -75.7070   25.4446  -75.7417 O.2       4 UNK        -0.5105 
     52 CA        -77.2347   23.6583  -76.2196 C.3       4 UNK         0.0263 
     53 CB        -76.3911   22.7907  -75.2626 C.3       4 UNK        -0.1981 
     54 N         -78.6501   23.5558  -75.8565 N.am      4 UNK        -0.4224 
     55 C         -79.4865   22.6253  -76.3351 C.2       3 UNK         0.4895 
     56 O         -79.1777   21.8221  -77.2167 O.2       3 UNK        -0.5091 
     57 CA        -80.8919   22.5303  -75.7156 C.3       3 UNK         0.0250 
     58 CB        -80.9890   21.2817  -74.8215 C.3       3 UNK        -0.1996 
     59 N         -81.2785   23.7006  -74.9212 N.am      3 UNK        -0.4254 
     60 C         -81.9207   24.7711  -75.4120 C.2       2 UNK         0.5004 
     61 O         -82.1540   24.9259  -76.6109 O.2       2 UNK        -0.5226 
     62 CA        -82.4136   25.8308  -74.4076 C.3       2 UNK         0.0269 
     63 CB        -83.9149   26.1243  -74.5877 C.3       2 UNK        -0.1926 
     64 N         -82.1617   25.4450  -73.0140 N.am      2 UNK        -0.4687 
     65 C         -81.7975   26.2899  -72.0394 C.2       1 UNK         0.5165 
     66 O         -81.6888   27.5062  -72.1964 O.2       1 UNK        -0.5079 
     67 H67       -85.4501   23.5071  -70.5346 H         1 UNK         0.0900 
     68 H68       -84.0716   22.6730  -69.8147 H         1 UNK         0.0900 
     69 H69       -85.1135   23.6824  -68.8103 H         1 UNK         0.0900 
     70 H70       -82.1311   23.6724  -70.2836 H         1 UNK         0.2959 
     71 H71       -81.6600   26.4637  -69.9153 H         1 UNK         0.1079 
     72 H72       -79.8368   24.4453  -71.3375 H         1 UNK         0.0837 
     73 H73       -79.9841   24.5463  -69.6138 H         1 UNK         0.0837 
     74 H74       -76.8144   25.8980  -71.6071 H         1 UNK         0.0685 
     75 H75       -78.2149   25.4145  -72.5205 H         1 UNK         0.0685 
     76 H76       -79.6142   27.1480  -73.7117 H         1 UNK         0.1434 
     77 H77       -77.5569   30.7253  -74.8642 H         1 UNK         0.1329 
     78 H78       -75.8309   28.1036  -71.9419 H         1 UNK         0.1335 
     79 H79       -74.9176   30.3757  -72.3034 H         1 UNK         0.0680 
     80 H80       -75.6291   31.4475  -73.4922 H         1 UNK         0.0680 
     81 H81       -72.6199   31.3275  -73.2685 H         1 UNK         0.1032 
     82 H82       -73.3306   32.1440  -74.6390 H         1 UNK         0.1032 
     83 H83       -71.8890   30.8047  -76.1910 H         1 UNK         0.0461 
     84 H84       -68.9375   31.0381  -75.4242 H         1 UNK         0.3453 
     85 H85       -68.6968   32.7684  -75.4255 H         1 UNK         0.3453 
     86 H86       -70.9862   28.9347  -75.5099 H         1 UNK         0.2984 
     87 H87       -68.9881   27.8597  -74.2502 H         1 UNK         0.0554 
     88 H88       -68.2739   28.4456  -71.9478 H         1 UNK         0.0847 
     89 H89       -68.6328   26.7306  -72.0572 H         1 UNK         0.0847 
     90 H90       -69.7803   27.8263  -71.2888 H         1 UNK         0.0847 
     91 H91       -70.5152   26.2605  -74.4976 H         1 UNK         0.3141 
     92 H92       -72.1765   24.5982  -73.3452 H         1 UNK         0.0743 
     93 H93       -74.6441   24.4858  -73.2496 H         1 UNK         0.0784 
     94 H94       -74.0317   25.3770  -71.8675 H         1 UNK         0.0784 
     95 H95       -74.7493   26.2437  -73.2220 H         1 UNK         0.0784 
     96 H96       -73.8620   25.6797  -75.4192 H         1 UNK         0.3213 
     97 H97       -71.4321   25.3377  -78.0421 H         1 UNK         0.0855 
     98 H98       -74.0734   23.8983  -77.4414 H         1 UNK         0.0814 
     99 H99       -72.5317   23.1057  -77.7330 H         1 UNK         0.0814 
    100 H100      -73.2937   24.0308  -79.0163 H         1 UNK         0.0814 
    101 H101      -74.0922   26.3031  -78.1492 H         1 UNK         0.3105 
    102 H102      -73.4729   29.7267  -77.4735 H         1 UNK         0.0547 
    103 H103      -72.7717   29.4775  -79.8017 H         1 UNK         0.0837 
    104 H104      -74.0046   28.2700  -80.1089 H         1 UNK         0.0837 
    105 H105      -74.4667   29.9328  -79.7469 H         1 UNK         0.0837 
    106 H106      -75.3766   29.0620  -76.6517 H         1 UNK         0.3020 
    107 H107      -77.0335   27.7875  -76.0445 H         1 UNK         0.1245 
    108 H108      -78.2118   29.3030  -77.6324 H         1 UNK         0.0781 
    109 H109      -78.6666   27.9494  -78.6346 H         1 UNK         0.0781 
    110 H110      -80.7819   29.3553  -74.8030 H         1 UNK         0.0836 
    111 H111      -79.6994   30.2729  -75.8216 H         1 UNK         0.0836 
    112 H112      -78.4428   25.6666  -77.2977 H         1 UNK         0.3022 
    113 H113      -77.0875   23.2812  -77.2339 H         1 UNK         0.0747 
    114 H114      -75.3307   22.8376  -75.5135 H         1 UNK         0.0793 
    115 H115      -76.4981   23.1183  -74.2281 H         1 UNK         0.0793 
    116 H116      -76.6863   21.7427  -75.3138 H         1 UNK         0.0793 
    117 H117      -78.9861   24.2057  -75.1607 H         1 UNK         0.3047 
    118 H118      -81.5978   22.4058  -76.5401 H         1 UNK         0.0822 
    119 H119      -81.9969   21.1537  -74.4259 H         1 UNK         0.0807 
    120 H120      -80.2994   21.3318  -73.9779 H         1 UNK         0.0807 
    121 H121      -80.7489   20.3779  -75.3837 H         1 UNK         0.0807 
    122 H122      -81.0900   23.6553  -73.9320 H         1 UNK         0.2946 
    123 H123      -81.8594   26.7424  -74.6398 H         1 UNK         0.1144 
    124 H124      -84.1340   26.4521  -75.6048 H         1 UNK         0.0793 
    125 H125      -84.2460   26.9174  -73.9170 H         1 UNK         0.0793 
    126 H126      -84.5233   25.2415  -74.3887 H         1 UNK         0.0793 
    127 H127      -82.3194   24.4772  -72.7726 H         1 UNK         0.2896 
@<TRIPOS>BOND
     1    1    2 1    
     2    1   67 1    
     3    1   68 1    
     4    1   69 1    
     5    2    3 2    
     6    2    4 am   BACKBONE|DICT|INTERRES
     7    4    5 1    
     8    4   70 1    
     9    5    6 1    
    10    5   65 1    
    11    5   71 1    
    12    6    7 1    
    13    6   72 1    
    14    6   73 1    
    15    7    8 1    
    16    8    9 1    
    17    8   74 1    
    18    8   75 1    
    19    9   10 ar   
    20    9   14 ar   
    21   10   11 ar   
    22   10   76 1    
    23   11   12 ar   
    24   11   48 1    
    25   12   13 ar   
    26   12   77 1    
    27   13   14 ar   
    28   13   15 1    
    29   14   78 1    
    30   15   16 1    
    31   15   79 1    
    32   15   80 1    
    33   16   17 1    
    34   17   18 1    
    35   17   81 1    
    36   17   82 1    
    37   18   19 1    
    38   18   22 1    
    39   18   83 1    
    40   19   20 am   BACKBONE|DICT|INTERRES
    41   19   21 2    
    42   20   84 1    
    43   20   85 1    
    44   22   23 am   BACKBONE|DICT|INTERRES
    45   22   86 1    
    46   23   24 2    
    47   23   25 1    
    48   25   26 1    
    49   25   27 1    
    50   25   87 1    
    51   26   88 1    
    52   26   89 1    
    53   26   90 1    
    54   27   28 am   BACKBONE|DICT|INTERRES
    55   27   91 1    
    56   28   29 2    
    57   28   30 1    
    58   30   31 1    
    59   30   32 1    
    60   30   92 1    
    61   31   93 1    
    62   31   94 1    
    63   31   95 1    
    64   32   33 am   BACKBONE|DICT|INTERRES
    65   32   96 1    
    66   33   34 2    
    67   33   35 1    
    68   35   36 1    
    69   35   37 1    
    70   35   97 1    
    71   36   98 1    
    72   36   99 1    
    73   36  100 1    
    74   37   38 am   BACKBONE|DICT|INTERRES
    75   37  101 1    
    76   38   39 2    
    77   38   40 1    
    78   40   41 1    
    79   40   42 1    
    80   40  102 1    
    81   41  103 1    
    82   41  104 1    
    83   41  105 1    
    84   42   43 am   BACKBONE|DICT|INTERRES
    85   42  106 1    
    86   43   44 2    
    87   43   45 1    
    88   45   46 1    
    89   45   49 1    
    90   45  107 1    
    91   46   47 1    
    92   46  108 1    
    93   46  109 1    
    94   47   48 1    
    95   48  110 1    
    96   48  111 1    
    97   49   50 am   BACKBONE|DICT|INTERRES
    98   49  112 1    
    99   50   51 2    
   100   50   52 1    
   101   52   53 1    
   102   52   54 1    
   103   52  113 1    
   104   53  114 1    
   105   53  115 1    
   106   53  116 1    
   107   54   55 am   BACKBONE|DICT|INTERRES
   108   54  117 1    
   109   55   56 2    
   110   55   57 1    
   111   57   58 1    
   112   57   59 1    
   113   57  118 1    
   114   58  119 1    
   115   58  120 1    
   116   58  121 1    
   117   59   60 am   BACKBONE|DICT|INTERRES
   118   59  122 1    
   119   60   61 2    
   120   60   62 1    
   121   62   63 1    
   122   62   64 1    
   123   62  123 1    
   124   63  124 1    
   125   63  125 1    
   126   63  126 1    
   127   64   65 am   BACKBONE|DICT|INTERRES
   128   64  127 1    
   129   65   66 2    
@<TRIPOS>SUBSTRUCTURE
     1 UNK         1 GROUP             0       ****    0 ROOT    
