@<TRIPOS>MOLECULE
3R135
127   129    1
SMALL
USER_CHARGES


@<TRIPOS>ATOM
      1 CA        -84.0678   24.5895  -74.9569 C.3       0 UNK        -0.1998 
      2 C         -83.0409   25.6964  -75.1380 C.2       0 UNK         0.4909 
      3 O         -82.5157   25.8741  -76.2378 O.2       0 UNK        -0.5240 
      4 N         -82.7555   26.4482  -74.0664 N.am      1 UNK        -0.4739 
      5 CA        -81.7933   27.5549  -74.0639 C.3       1 UNK         0.0864 
      6 C6        -81.9450   28.4404  -72.8022 C.3       11 UNK        -0.0881 
      7 S7        -81.3590   30.1473  -73.0894 S.3       11 UNK        -0.2682 
      8 C8        -80.3540   30.4781  -71.6071 C.3       11 UNK         0.0289 
      9 C9        -79.0411   29.7074  -71.6056 C.ar      11 UNK        -0.0687 
     10 C10       -78.9057   28.5533  -70.8301 C.ar      11 UNK        -0.0823 
     11 C11       -77.6972   27.8541  -70.8033 C.ar      11 UNK        -0.0830 
     12 C12       -76.6167   28.3148  -71.5606 C.ar      11 UNK        -0.1021 
     13 C13       -76.7308   29.4780  -72.3299 C.ar      11 UNK        -0.0753 
     14 C14       -77.9496   30.1664  -72.3502 C.ar      11 UNK        -0.0933 
     15 C15       -75.5494   29.9935  -73.1458 C.3       11 UNK         0.0166 
     16 S16       -74.0428   30.1918  -72.1390 S.3       11 UNK        -0.2615 
     17 C17       -73.0707   28.7118  -72.6001 C.3       11 UNK        -0.0865 
     18 CA        -71.7192   29.0674  -73.2807 C.3       10 UNK         0.0862 
     19 C         -70.8140   27.8123  -73.4293 C.2       10 UNK         0.5551 
     20 N         -70.4458   27.3829  -74.6303 N.am      10 UNK        -0.7319 
     21 O         -70.4119   27.2299  -72.4252 O.2       10 UNK        -0.5018 
     22 N         -71.8963   29.8227  -74.5361 N.am      10 UNK        -0.4509 
     23 C         -71.7094   31.1445  -74.6646 C.2       10 UNK         0.4899 
     24 O         -71.3627   31.8785  -73.7377 O.2       10 UNK        -0.4839 
     25 CA        -71.9200   31.7862  -76.0503 C.3       9 UNK         0.0222 
     26 CB        -70.5930   32.3453  -76.5926 C.3       9 UNK        -0.1966 
     27 N         -72.4924   30.8901  -77.0544 N.am      9 UNK        -0.4218 
     28 C         -73.7755   30.5152  -77.1347 C.2       9 UNK         0.5020 
     29 O         -74.6530   30.8819  -76.3535 O.2       9 UNK        -0.5274 
     30 CA        -74.1418   29.5652  -78.2928 C.3       8 UNK         0.0270 
     31 CB        -73.2056   29.6998  -79.5155 C.3       8 UNK        -0.1976 
     32 N         -74.2298   28.1558  -77.8909 N.am      8 UNK        -0.4313 
     33 C         -73.3267   27.4442  -77.2023 C.2       8 UNK         0.5041 
     34 O         -72.2902   27.9077  -76.7161 O.2       8 UNK        -0.5577 
     35 CA        -73.6069   25.9441  -77.0762 C.3       7 UNK         0.0284 
     36 CB        -73.1103   25.2052  -78.3345 C.3       7 UNK        -0.1958 
     37 N         -72.9135   25.4416  -75.8927 N.am      7 UNK        -0.4454 
     38 C         -73.1606   24.3412  -75.1700 C.2       7 UNK         0.5089 
     39 O         -72.4774   24.0719  -74.1833 O.2       7 UNK        -0.5125 
     40 CA        -74.3097   23.3875  -75.5731 C.3       6 UNK         0.0408 
     41 CB        -73.8302   21.9276  -75.7106 C.3       6 UNK        -0.1791 
     42 N         -75.4546   23.5132  -74.6653 N.am      6 UNK        -0.4762 
     43 C         -75.5668   23.1181  -73.3874 C.2       6 UNK         0.5007 
     44 O         -74.7086   22.4847  -72.7723 O.2       6 UNK        -0.5032 
     45 CA        -76.8787   23.4771  -72.6612 C.3       5 UNK         0.0783 
     46 C46       -76.7602   24.8498  -71.9648 C.3       11 UNK        -0.0857 
     47 S47       -78.1433   25.1298  -70.8130 S.3       11 UNK        -0.2512 
     48 C48       -77.5608   26.6115  -69.9385 C.3       11 UNK         0.0225 
     49 N         -78.0507   23.4133  -73.5407 N.am      5 UNK        -0.4615 
     50 C         -78.5881   22.2762  -74.0003 C.2       4 UNK         0.5053 
     51 O         -78.1521   21.1549  -73.7383 O.2       4 UNK        -0.5105 
     52 CA        -79.8253   22.4107  -74.8995 C.3       4 UNK         0.0263 
     53 CB        -81.0988   22.5617  -74.0530 C.3       4 UNK        -0.1981 
     54 N         -79.7015   23.5385  -75.8247 N.am      4 UNK        -0.4224 
     55 C         -78.9947   23.4911  -76.9637 C.2       3 UNK         0.4895 
     56 O         -78.4531   22.4712  -77.3911 O.2       3 UNK        -0.5091 
     57 CA        -78.8518   24.7975  -77.7648 C.3       3 UNK         0.0250 
     58 CB        -79.9610   24.9054  -78.8231 C.3       3 UNK        -0.1996 
     59 N         -78.8571   26.0016  -76.9312 N.am      3 UNK        -0.4254 
     60 C         -77.9064   26.3153  -76.0394 C.2       2 UNK         0.5004 
     61 O         -76.9109   25.6267  -75.8302 O.2       2 UNK        -0.5226 
     62 CA        -78.1160   27.5927  -75.2129 C.3       2 UNK         0.0269 
     63 CB        -77.5027   28.7987  -75.9405 C.3       2 UNK        -0.1926 
     64 N         -79.5205   27.8740  -74.9092 N.am      2 UNK        -0.4687 
     65 C         -80.3475   27.0492  -74.2529 C.2       1 UNK         0.5165 
     66 O         -80.0156   25.9354  -73.8349 O.2       1 UNK        -0.5079 
     67 H67       -84.0771   24.2160  -73.9331 H         1 UNK         0.0900 
     68 H68       -83.8481   23.7536  -75.6203 H         1 UNK         0.0900 
     69 H69       -85.0636   24.9596  -75.1990 H         1 UNK         0.0900 
     70 H70       -83.1894   26.2360  -73.1795 H         1 UNK         0.2959 
     71 H71       -82.0430   28.1647  -74.9359 H         1 UNK         0.1079 
     72 H72       -82.9978   28.5205  -72.5262 H         1 UNK         0.0837 
     73 H73       -81.4493   27.9898  -71.9415 H         1 UNK         0.0837 
     74 H74       -80.1419   31.5473  -71.5620 H         1 UNK         0.0685 
     75 H75       -80.9393   30.2496  -70.7149 H         1 UNK         0.0685 
     76 H76       -79.7399   28.1981  -70.2408 H         1 UNK         0.1434 
     77 H77       -75.6805   27.7752  -71.5397 H         1 UNK         0.1329 
     78 H78       -78.0525   31.0641  -72.9444 H         1 UNK         0.1335 
     79 H79       -75.3642   29.3265  -73.9874 H         1 UNK         0.0680 
     80 H80       -75.7859   30.9647  -73.5832 H         1 UNK         0.0680 
     81 H81       -73.6543   28.0523  -73.2441 H         1 UNK         0.1032 
     82 H82       -72.8953   28.1482  -71.6816 H         1 UNK         0.1032 
     83 H83       -71.1688   29.6940  -72.5765 H         1 UNK         0.0461 
     84 H84       -69.8265   26.5908  -74.6948 H         1 UNK         0.3453 
     85 H85       -70.8097   27.8125  -75.4737 H         1 UNK         0.3453 
     86 H86       -72.1473   29.2769  -75.3553 H         1 UNK         0.2984 
     87 H87       -72.6083   32.6226  -75.9127 H         1 UNK         0.0554 
     88 H88       -70.7372   32.8649  -77.5400 H         1 UNK         0.0847 
     89 H89       -69.8565   31.5562  -76.7492 H         1 UNK         0.0847 
     90 H90       -70.1562   33.0637  -75.8974 H         1 UNK         0.0847 
     91 H91       -71.8472   30.4827  -77.7159 H         1 UNK         0.3141 
     92 H92       -75.1423   29.8583  -78.6153 H         1 UNK         0.0743 
     93 H93       -73.1074   30.7409  -79.8272 H         1 UNK         0.0784 
     94 H94       -72.2050   29.3138  -79.3172 H         1 UNK         0.0784 
     95 H95       -73.6014   29.1496  -80.3693 H         1 UNK         0.0784 
     96 H96       -75.0518   27.6715  -78.2233 H         1 UNK         0.3213 
     97 H97       -74.6819   25.8162  -76.9617 H         1 UNK         0.0855 
     98 H98       -73.6232   25.5641  -79.2278 H         1 UNK         0.0814 
     99 H99       -73.2797   24.1306  -78.2801 H         1 UNK         0.0814 
    100 H100      -72.0418   25.3607  -78.4910 H         1 UNK         0.0814 
    101 H101      -72.1751   26.0630  -75.5852 H         1 UNK         0.3105 
    102 H102      -74.7047   23.6583  -76.5488 H         1 UNK         0.0547 
    103 H103      -73.0836   21.8426  -76.5008 H         1 UNK         0.0837 
    104 H104      -73.3697   21.5540  -74.7959 H         1 UNK         0.0837 
    105 H105      -74.6540   21.2620  -75.9680 H         1 UNK         0.0837 
    106 H106      -76.2016   24.1000  -75.0331 H         1 UNK         0.3020 
    107 H107      -77.0112   22.7196  -71.8845 H         1 UNK         0.1245 
    108 H108      -76.7369   25.6542  -72.7020 H         1 UNK         0.0781 
    109 H109      -75.8291   24.9162  -71.3979 H         1 UNK         0.0781 
    110 H110      -76.5271   26.4743  -69.6173 H         1 UNK         0.0836 
    111 H111      -78.1457   26.7329  -69.0255 H         1 UNK         0.0836 
    112 H112      -78.5081   24.2924  -73.7507 H         1 UNK         0.3022 
    113 H113      -79.9178   21.4875  -75.4762 H         1 UNK         0.0747 
    114 H114      -81.9889   22.5356  -74.6796 H         1 UNK         0.0793 
    115 H115      -81.1886   21.7455  -73.3349 H         1 UNK         0.0793 
    116 H116      -81.1070   23.4944  -73.4879 H         1 UNK         0.0793 
    117 H117      -80.0881   24.4245  -75.5235 H         1 UNK         0.3047 
    118 H118      -77.8901   24.7573  -78.2812 H         1 UNK         0.0822 
    119 H119      -79.8233   25.7824  -79.4558 H         1 UNK         0.0807 
    120 H120      -80.9495   24.9717  -78.3665 H         1 UNK         0.0807 
    121 H121      -79.9624   24.0324  -79.4774 H         1 UNK         0.0807 
    122 H122      -79.6564   26.6134  -77.0167 H         1 UNK         0.2946 
    123 H123      -77.5977   27.4550  -74.2620 H         1 UNK         0.1144 
    124 H124      -77.5978   29.7118  -75.3532 H         1 UNK         0.0793 
    125 H125      -77.9751   28.9740  -76.9078 H         1 UNK         0.0793 
    126 H126      -76.4387   28.6435  -76.1200 H         1 UNK         0.0793 
    127 H127      -79.8679   28.7804  -75.1891 H         1 UNK         0.2896 
@<TRIPOS>BOND
     1    1    2 1    
     2    1   67 1    
     3    1   68 1    
     4    1   69 1    
     5    2    3 2    
     6    2    4 am   BACKBONE|DICT|INTERRES
     7    4    5 1    
     8    4   70 1    
     9    5    6 1    
    10    5   65 1    
    11    5   71 1    
    12    6    7 1    
    13    6   72 1    
    14    6   73 1    
    15    7    8 1    
    16    8    9 1    
    17    8   74 1    
    18    8   75 1    
    19    9   10 ar   
    20    9   14 ar   
    21   10   11 ar   
    22   10   76 1    
    23   11   12 ar   
    24   11   48 1    
    25   12   13 ar   
    26   12   77 1    
    27   13   14 ar   
    28   13   15 1    
    29   14   78 1    
    30   15   16 1    
    31   15   79 1    
    32   15   80 1    
    33   16   17 1    
    34   17   18 1    
    35   17   81 1    
    36   17   82 1    
    37   18   19 1    
    38   18   22 1    
    39   18   83 1    
    40   19   20 am   BACKBONE|DICT|INTERRES
    41   19   21 2    
    42   20   84 1    
    43   20   85 1    
    44   22   23 am   BACKBONE|DICT|INTERRES
    45   22   86 1    
    46   23   24 2    
    47   23   25 1    
    48   25   26 1    
    49   25   27 1    
    50   25   87 1    
    51   26   88 1    
    52   26   89 1    
    53   26   90 1    
    54   27   28 am   BACKBONE|DICT|INTERRES
    55   27   91 1    
    56   28   29 2    
    57   28   30 1    
    58   30   31 1    
    59   30   32 1    
    60   30   92 1    
    61   31   93 1    
    62   31   94 1    
    63   31   95 1    
    64   32   33 am   BACKBONE|DICT|INTERRES
    65   32   96 1    
    66   33   34 2    
    67   33   35 1    
    68   35   36 1    
    69   35   37 1    
    70   35   97 1    
    71   36   98 1    
    72   36   99 1    
    73   36  100 1    
    74   37   38 am   BACKBONE|DICT|INTERRES
    75   37  101 1    
    76   38   39 2    
    77   38   40 1    
    78   40   41 1    
    79   40   42 1    
    80   40  102 1    
    81   41  103 1    
    82   41  104 1    
    83   41  105 1    
    84   42   43 am   BACKBONE|DICT|INTERRES
    85   42  106 1    
    86   43   44 2    
    87   43   45 1    
    88   45   46 1    
    89   45   49 1    
    90   45  107 1    
    91   46   47 1    
    92   46  108 1    
    93   46  109 1    
    94   47   48 1    
    95   48  110 1    
    96   48  111 1    
    97   49   50 am   BACKBONE|DICT|INTERRES
    98   49  112 1    
    99   50   51 2    
   100   50   52 1    
   101   52   53 1    
   102   52   54 1    
   103   52  113 1    
   104   53  114 1    
   105   53  115 1    
   106   53  116 1    
   107   54   55 am   BACKBONE|DICT|INTERRES
   108   54  117 1    
   109   55   56 2    
   110   55   57 1    
   111   57   58 1    
   112   57   59 1    
   113   57  118 1    
   114   58  119 1    
   115   58  120 1    
   116   58  121 1    
   117   59   60 am   BACKBONE|DICT|INTERRES
   118   59  122 1    
   119   60   61 2    
   120   60   62 1    
   121   62   63 1    
   122   62   64 1    
   123   62  123 1    
   124   63  124 1    
   125   63  125 1    
   126   63  126 1    
   127   64   65 am   BACKBONE|DICT|INTERRES
   128   64  127 1    
   129   65   66 2    
@<TRIPOS>SUBSTRUCTURE
     1 UNK         1 GROUP             0       ****    0 ROOT    
