@<TRIPOS>MOLECULE
3R135
127   129    1
SMALL
USER_CHARGES


@<TRIPOS>ATOM
      1 CA        -84.8874   26.1955  -72.1515 C.3       0 UNK        -0.1998 
      2 C         -83.5098   26.4274  -72.7527 C.2       0 UNK         0.4909 
      3 O         -83.3953   27.0674  -73.7994 O.2       0 UNK        -0.5240 
      4 N         -82.4583   25.9110  -72.1043 N.am      1 UNK        -0.4739 
      5 CA        -81.0622   26.0251  -72.5388 C.3       1 UNK         0.0864 
      6 C6        -80.0675   25.9413  -71.3480 C.3       11 UNK        -0.0881 
      7 S7        -80.3984   27.1730  -70.0369 S.3       11 UNK        -0.2682 
      8 C8        -78.8017   28.0612  -69.9000 C.3       11 UNK         0.0289 
      9 C9        -78.4821   29.0730  -71.0052 C.ar      11 UNK        -0.0687 
     10 C10       -79.3417   29.3191  -72.0832 C.ar      11 UNK        -0.0823 
     11 C11       -78.9828   30.2054  -73.0991 C.ar      11 UNK        -0.0830 
     12 C12       -77.7891   30.9205  -72.9966 C.ar      11 UNK        -0.1021 
     13 C13       -76.9260   30.7052  -71.9220 C.ar      11 UNK        -0.0753 
     14 C14       -77.2722   29.7748  -70.9361 C.ar      11 UNK        -0.0933 
     15 C15       -75.6133   31.4690  -71.8558 C.3       11 UNK         0.0166 
     16 S16       -74.4458   30.8738  -73.1187 S.3       11 UNK        -0.2615 
     17 C17       -73.9606   29.2620  -72.4160 C.3       11 UNK        -0.0865 
     18 CA        -72.4634   28.9572  -72.6714 C.3       10 UNK         0.0862 
     19 C         -71.9515   27.7816  -71.7854 C.2       10 UNK         0.5551 
     20 N         -71.2906   26.7621  -72.3210 N.am      10 UNK        -0.7319 
     21 O         -72.1402   27.8046  -70.5716 O.2       10 UNK        -0.5018 
     22 N         -72.2001   28.7899  -74.1089 N.am      10 UNK        -0.4509 
     23 C         -71.0474   29.0919  -74.7199 C.2       10 UNK         0.4899 
     24 O         -70.0981   29.6424  -74.1595 O.2       10 UNK        -0.4839 
     25 CA        -70.9365   28.6788  -76.2037 C.3       9 UNK         0.0222 
     26 CB        -69.4835   28.6834  -76.7232 C.3       9 UNK        -0.1966 
     27 N         -71.5830   27.3886  -76.4825 N.am      9 UNK        -0.4218 
     28 C         -71.3331   26.2152  -75.8773 C.2       9 UNK         0.5020 
     29 O         -70.4272   26.0568  -75.0578 O.2       9 UNK        -0.5274 
     30 CA        -72.2768   25.0349  -76.1655 C.3       8 UNK         0.0270 
     31 CB        -72.8473   24.4831  -74.8463 C.3       8 UNK        -0.1976 
     32 N         -73.3893   25.4153  -77.0402 N.am      8 UNK        -0.4313 
     33 C         -73.4618   25.1438  -78.3510 C.2       8 UNK         0.5041 
     34 O         -72.6294   24.4681  -78.9574 O.2       8 UNK        -0.5577 
     35 CA        -74.6386   25.7567  -79.1383 C.3       7 UNK         0.0284 
     36 CB        -75.8047   24.7594  -79.2293 C.3       7 UNK        -0.1958 
     37 N         -75.1345   27.0201  -78.5842 N.am      7 UNK        -0.4454 
     38 C         -74.4145   28.1396  -78.4233 C.2       7 UNK         0.5089 
     39 O         -73.2487   28.2614  -78.7966 O.2       7 UNK        -0.5125 
     40 CA        -75.0753   29.2925  -77.6458 C.3       6 UNK         0.0408 
     41 CB        -75.6366   30.3435  -78.6149 C.3       6 UNK        -0.1791 
     42 N         -76.1375   28.8648  -76.7286 N.am      6 UNK        -0.4762 
     43 C         -76.0022   28.0124  -75.7041 C.2       6 UNK         0.5007 
     44 O         -74.9225   27.4748  -75.4329 O.2       6 UNK        -0.5032 
     45 CA        -77.2748   27.6839  -74.8789 C.3       5 UNK         0.0783 
     46 C46       -78.6330   28.0589  -75.5537 C.3       11 UNK        -0.0857 
     47 S47       -78.9553   29.8407  -75.8353 S.3       11 UNK        -0.2512 
     48 C48       -79.8552   30.3509  -74.3344 C.3       11 UNK         0.0225 
     49 N         -77.2608   26.2573  -74.5331 N.am      5 UNK        -0.4615 
     50 C         -76.6279   25.7239  -73.4770 C.2       4 UNK         0.5053 
     51 O         -76.1156   26.4000  -72.5859 O.2       4 UNK        -0.5105 
     52 CA        -76.5411   24.1867  -73.3801 C.3       4 UNK         0.0263 
     53 CB        -76.9199   23.6795  -71.9768 C.3       4 UNK        -0.1981 
     54 N         -77.3696   23.4998  -74.3739 N.am      4 UNK        -0.4224 
     55 C         -76.9329   23.0358  -75.5545 C.2       3 UNK         0.4895 
     56 O         -75.7667   23.1167  -75.9323 O.2       3 UNK        -0.5091 
     57 CA        -77.9639   22.3822  -76.4948 C.3       3 UNK         0.0250 
     58 CB        -77.9065   20.8513  -76.3700 C.3       3 UNK        -0.1996 
     59 N         -79.3418   22.8304  -76.2814 N.am      3 UNK        -0.4254 
     60 C         -79.7700   24.0924  -76.4162 C.2       2 UNK         0.5004 
     61 O         -79.0422   25.0230  -76.7639 O.2       2 UNK        -0.5226 
     62 CA        -81.2352   24.3849  -76.0412 C.3       2 UNK         0.0269 
     63 CB        -82.1128   23.1221  -75.8833 C.3       2 UNK        -0.1926 
     64 N         -81.3302   25.2138  -74.8333 N.am      2 UNK        -0.4687 
     65 C         -80.7655   24.9848  -73.6374 C.2       1 UNK         0.5165 
     66 O         -80.0684   24.0002  -73.3843 O.2       1 UNK        -0.5079 
     67 H67       -84.8367   25.6239  -71.2249 H         1 UNK         0.0900 
     68 H68       -85.5158   25.6488  -72.8541 H         1 UNK         0.0900 
     69 H69       -85.3672   27.1496  -71.9354 H         1 UNK         0.0900 
     70 H70       -82.6063   25.3867  -71.2535 H         1 UNK         0.2959 
     71 H71       -80.9294   26.9952  -73.0148 H         1 UNK         0.1079 
     72 H72       -80.1011   24.9520  -70.8878 H         1 UNK         0.0837 
     73 H73       -79.0463   26.0762  -71.7076 H         1 UNK         0.0837 
     74 H74       -78.7998   28.5899  -68.9459 H         1 UNK         0.0685 
     75 H75       -77.9960   27.3273  -69.8445 H         1 UNK         0.0685 
     76 H76       -80.2919   28.8186  -72.1501 H         1 UNK         0.1434 
     77 H77       -77.5091   31.6142  -73.7781 H         1 UNK         0.1329 
     78 H78       -76.5967   29.5945  -70.1109 H         1 UNK         0.1335 
     79 H79       -75.1619   31.3974  -70.8650 H         1 UNK         0.0680 
     80 H80       -75.8065   32.5289  -72.0273 H         1 UNK         0.0680 
     81 H81       -74.5924   28.4834  -72.8440 H         1 UNK         0.1032 
     82 H82       -74.1756   29.2686  -71.3461 H         1 UNK         0.1032 
     83 H83       -71.9000   29.8261  -72.3257 H         1 UNK         0.0461 
     84 H84       -70.9656   26.0246  -71.7171 H         1 UNK         0.3453 
     85 H85       -71.0731   26.7281  -73.3106 H         1 UNK         0.3453 
     86 H86       -72.9324   28.3331  -74.6376 H         1 UNK         0.2984 
     87 H87       -71.4926   29.4274  -76.7698 H         1 UNK         0.0554 
     88 H88       -69.4386   28.4069  -77.7766 H         1 UNK         0.0847 
     89 H89       -68.8522   27.9898  -76.1668 H         1 UNK         0.0847 
     90 H90       -69.0375   29.6744  -76.6307 H         1 UNK         0.0847 
     91 H91       -72.3134   27.4197  -77.1854 H         1 UNK         0.3141 
     92 H92       -71.6756   24.2506  -76.6294 H         1 UNK         0.0743 
     93 H93       -73.4869   25.2121  -74.3467 H         1 UNK         0.0784 
     94 H94       -73.4293   23.5796  -75.0186 H         1 UNK         0.0784 
     95 H95       -72.0536   24.2131  -74.1486 H         1 UNK         0.0784 
     96 H96       -74.1107   25.9891  -76.6141 H         1 UNK         0.3213 
     97 H97       -74.2795   25.9599  -80.1495 H         1 UNK         0.0855 
     98 H98       -76.2526   24.5766  -78.2523 H         1 UNK         0.0814 
     99 H99       -75.4693   23.7975  -79.6198 H         1 UNK         0.0814 
    100 H100      -76.5884   25.1225  -79.8944 H         1 UNK         0.0814 
    101 H101      -76.0844   27.0234  -78.2425 H         1 UNK         0.3105 
    102 H102      -74.2970   29.7645  -77.0425 H         1 UNK         0.0547 
    103 H103      -74.8615   30.7029  -79.2933 H         1 UNK         0.0837 
    104 H104      -76.4438   29.9391  -79.2269 H         1 UNK         0.0837 
    105 H105      -76.0228   31.2112  -78.0796 H         1 UNK         0.0837 
    106 H106      -77.0502   29.2838  -76.8640 H         1 UNK         0.3020 
    107 H107      -77.1857   28.2619  -73.9572 H         1 UNK         0.1245 
    108 H108      -79.4561   27.6668  -74.9557 H         1 UNK         0.0781 
    109 H109      -78.7186   27.5612  -76.5203 H         1 UNK         0.0781 
    110 H110      -80.7731   29.7670  -74.2474 H         1 UNK         0.0836 
    111 H111      -80.1594   31.3934  -74.4376 H         1 UNK         0.0836 
    112 H112      -77.6537   25.6340  -75.2287 H         1 UNK         0.3022 
    113 H113      -75.4930   23.9296  -73.5417 H         1 UNK         0.0747 
    114 H114      -76.7745   22.6022  -71.8966 H         1 UNK         0.0793 
    115 H115      -76.3020   24.1440  -71.2073 H         1 UNK         0.0793 
    116 H116      -77.9596   23.8922  -71.7334 H         1 UNK         0.0793 
    117 H117      -78.3597   23.4324  -74.1514 H         1 UNK         0.3047 
    118 H118      -77.6865   22.6520  -77.5159 H         1 UNK         0.0822 
    119 H119      -78.5612   20.3678  -77.0953 H         1 UNK         0.0807 
    120 H120      -78.1997   20.5162  -75.3742 H         1 UNK         0.0807 
    121 H121      -76.8960   20.4828  -76.5533 H         1 UNK         0.0807 
    122 H122      -80.0000   22.1366  -75.9572 H         1 UNK         0.2946 
    123 H123      -81.6437   24.9742  -76.8639 H         1 UNK         0.1144 
    124 H124      -82.0853   22.5047  -76.7824 H         1 UNK         0.0793 
    125 H125      -83.1556   23.3943  -75.7195 H         1 UNK         0.0793 
    126 H126      -81.8034   22.5030  -75.0403 H         1 UNK         0.0793 
    127 H127      -81.9281   26.0304  -74.9069 H         1 UNK         0.2896 
@<TRIPOS>BOND
     1    1    2 1    
     2    1   67 1    
     3    1   68 1    
     4    1   69 1    
     5    2    3 2    
     6    2    4 am   BACKBONE|DICT|INTERRES
     7    4    5 1    
     8    4   70 1    
     9    5    6 1    
    10    5   65 1    
    11    5   71 1    
    12    6    7 1    
    13    6   72 1    
    14    6   73 1    
    15    7    8 1    
    16    8    9 1    
    17    8   74 1    
    18    8   75 1    
    19    9   10 ar   
    20    9   14 ar   
    21   10   11 ar   
    22   10   76 1    
    23   11   12 ar   
    24   11   48 1    
    25   12   13 ar   
    26   12   77 1    
    27   13   14 ar   
    28   13   15 1    
    29   14   78 1    
    30   15   16 1    
    31   15   79 1    
    32   15   80 1    
    33   16   17 1    
    34   17   18 1    
    35   17   81 1    
    36   17   82 1    
    37   18   19 1    
    38   18   22 1    
    39   18   83 1    
    40   19   20 am   BACKBONE|DICT|INTERRES
    41   19   21 2    
    42   20   84 1    
    43   20   85 1    
    44   22   23 am   BACKBONE|DICT|INTERRES
    45   22   86 1    
    46   23   24 2    
    47   23   25 1    
    48   25   26 1    
    49   25   27 1    
    50   25   87 1    
    51   26   88 1    
    52   26   89 1    
    53   26   90 1    
    54   27   28 am   BACKBONE|DICT|INTERRES
    55   27   91 1    
    56   28   29 2    
    57   28   30 1    
    58   30   31 1    
    59   30   32 1    
    60   30   92 1    
    61   31   93 1    
    62   31   94 1    
    63   31   95 1    
    64   32   33 am   BACKBONE|DICT|INTERRES
    65   32   96 1    
    66   33   34 2    
    67   33   35 1    
    68   35   36 1    
    69   35   37 1    
    70   35   97 1    
    71   36   98 1    
    72   36   99 1    
    73   36  100 1    
    74   37   38 am   BACKBONE|DICT|INTERRES
    75   37  101 1    
    76   38   39 2    
    77   38   40 1    
    78   40   41 1    
    79   40   42 1    
    80   40  102 1    
    81   41  103 1    
    82   41  104 1    
    83   41  105 1    
    84   42   43 am   BACKBONE|DICT|INTERRES
    85   42  106 1    
    86   43   44 2    
    87   43   45 1    
    88   45   46 1    
    89   45   49 1    
    90   45  107 1    
    91   46   47 1    
    92   46  108 1    
    93   46  109 1    
    94   47   48 1    
    95   48  110 1    
    96   48  111 1    
    97   49   50 am   BACKBONE|DICT|INTERRES
    98   49  112 1    
    99   50   51 2    
   100   50   52 1    
   101   52   53 1    
   102   52   54 1    
   103   52  113 1    
   104   53  114 1    
   105   53  115 1    
   106   53  116 1    
   107   54   55 am   BACKBONE|DICT|INTERRES
   108   54  117 1    
   109   55   56 2    
   110   55   57 1    
   111   57   58 1    
   112   57   59 1    
   113   57  118 1    
   114   58  119 1    
   115   58  120 1    
   116   58  121 1    
   117   59   60 am   BACKBONE|DICT|INTERRES
   118   59  122 1    
   119   60   61 2    
   120   60   62 1    
   121   62   63 1    
   122   62   64 1    
   123   62  123 1    
   124   63  124 1    
   125   63  125 1    
   126   63  126 1    
   127   64   65 am   BACKBONE|DICT|INTERRES
   128   64  127 1    
   129   65   66 2    
@<TRIPOS>SUBSTRUCTURE
     1 UNK         1 GROUP             0       ****    0 ROOT    
