@<TRIPOS>MOLECULE
3R135
127   129    1
SMALL
USER_CHARGES


@<TRIPOS>ATOM
      1 CA        -85.4813   27.5157  -74.9722 C.3       0 UNK        -0.1998 
      2 C         -84.2948   28.3480  -75.4338 C.2       0 UNK         0.4909 
      3 O         -84.4001   29.0682  -76.4268 O.2       0 UNK        -0.5240 
      4 N         -83.1647   28.2538  -74.7212 N.am      1 UNK        -0.4739 
      5 CA        -81.9107   28.9551  -75.0300 C.3       1 UNK         0.0864 
      6 C6        -80.9824   29.0661  -73.7933 C.3       11 UNK        -0.0881 
      7 S7        -80.7313   27.4951  -72.8924 S.3       11 UNK        -0.2682 
      8 C8        -80.0138   28.1027  -71.3311 C.3       11 UNK         0.0289 
      9 C9        -78.4967   27.9781  -71.3164 C.ar      11 UNK        -0.0687 
     10 C10       -77.8853   26.9862  -70.5448 C.ar      11 UNK        -0.0823 
     11 C11       -76.4934   26.8626  -70.5160 C.ar      11 UNK        -0.0830 
     12 C12       -75.7089   27.7307  -71.2798 C.ar      11 UNK        -0.1021 
     13 C13       -76.3077   28.7293  -72.0540 C.ar      11 UNK        -0.0753 
     14 C14       -77.7006   28.8555  -72.0587 C.ar      11 UNK        -0.0933 
     15 C15       -75.4599   29.6440  -72.9242 C.3       11 UNK         0.0166 
     16 S16       -74.7464   31.0281  -71.9833 S.3       11 UNK        -0.2615 
     17 C17       -73.0656   30.4103  -71.6181 C.3       11 UNK        -0.0865 
     18 CA        -72.0229   30.8894  -72.6652 C.3       10 UNK         0.0862 
     19 C         -70.5639   30.5937  -72.2051 C.2       10 UNK         0.5551 
     20 N         -69.7231   29.9390  -72.9985 N.am      10 UNK        -0.7319 
     21 O         -70.1807   30.9787  -71.1032 O.2       10 UNK        -0.5018 
     22 N         -72.3378   30.3705  -74.0049 N.am      10 UNK        -0.4509 
     23 C         -72.0947   30.9981  -75.1605 C.2       10 UNK         0.4899 
     24 O         -71.6275   32.1354  -75.2396 O.2       10 UNK        -0.4839 
     25 CA        -72.4300   30.2052  -76.4420 C.3       9 UNK         0.0222 
     26 CB        -71.6969   30.7474  -77.6871 C.3       9 UNK        -0.1966 
     27 N         -72.2186   28.7551  -76.3098 N.am      9 UNK        -0.4218 
     28 C         -71.0703   28.1324  -75.9880 C.2       9 UNK         0.5020 
     29 O         -70.0246   28.7296  -75.7281 O.2       9 UNK        -0.5274 
     30 CA        -71.0774   26.5946  -75.8913 C.3       8 UNK         0.0270 
     31 CB        -70.7739   26.1454  -74.4510 C.3       8 UNK        -0.1976 
     32 N         -72.3400   25.9945  -76.3301 N.am      8 UNK        -0.4313 
     33 C         -72.6655   25.7717  -77.6132 C.2       8 UNK         0.5041 
     34 O         -71.8992   25.9864  -78.5530 O.2       8 UNK        -0.5577 
     35 CA        -74.0810   25.2411  -77.9180 C.3       7 UNK         0.0284 
     36 CB        -74.0310   23.7405  -78.2467 C.3       7 UNK        -0.1958 
     37 N         -75.0524   25.4631  -76.8433 N.am      7 UNK        -0.4454 
     38 C         -75.4549   26.6650  -76.4008 C.2       7 UNK         0.5089 
     39 O         -75.0672   27.7328  -76.8759 O.2       7 UNK        -0.5125 
     40 CA        -76.3825   26.6785  -75.1714 C.3       6 UNK         0.0408 
     41 CB        -77.8480   26.7303  -75.6140 C.3       6 UNK        -0.1791 
     42 N         -76.1695   25.5397  -74.2688 N.am      6 UNK        -0.4762 
     43 C         -74.9944   25.2579  -73.6810 C.2       6 UNK         0.5007 
     44 O         -74.0134   25.9983  -73.7662 O.2       6 UNK        -0.5032 
     45 CA        -74.8249   23.9016  -72.9641 C.3       5 UNK         0.0783 
     46 C46       -74.5169   24.0550  -71.4508 C.3       11 UNK        -0.0857 
     47 S47       -75.9905   24.1431  -70.3715 S.3       11 UNK        -0.2512 
     48 C48       -75.8488   25.8017  -69.6388 C.3       11 UNK         0.0225 
     49 N         -75.8915   22.9291  -73.2190 N.am      5 UNK        -0.4615 
     50 C         -76.2174   22.3879  -74.3982 C.2       4 UNK         0.5053 
     51 O         -75.6557   22.6718  -75.4578 O.2       4 UNK        -0.5105 
     52 CA        -77.3805   21.3750  -74.4033 C.3       4 UNK         0.0263 
     53 CB        -77.9041   21.0051  -72.9952 C.3       4 UNK        -0.1981 
     54 N         -78.4975   21.8072  -75.2505 N.am      4 UNK        -0.4224 
     55 C         -79.1555   22.9740  -75.1902 C.2       3 UNK         0.4895 
     56 O         -78.8775   23.8968  -74.4196 O.2       3 UNK        -0.5091 
     57 CA        -80.3539   23.1135  -76.1344 C.3       3 UNK         0.0250 
     58 CB        -81.6343   22.5728  -75.4744 C.3       3 UNK        -0.1996 
     59 N         -80.5415   24.5212  -76.4755 N.am      3 UNK        -0.4254 
     60 C         -80.8874   24.9739  -77.6867 C.2       2 UNK         0.5004 
     61 O         -81.1477   24.2353  -78.6383 O.2       2 UNK        -0.5226 
     62 CA        -80.9620   26.4990  -77.8637 C.3       2 UNK         0.0269 
     63 CB        -81.7939   26.9229  -79.0921 C.3       2 UNK        -0.1926 
     64 N         -81.4903   27.1473  -76.6620 N.am      2 UNK        -0.4687 
     65 C         -81.1693   28.3839  -76.2587 C.2       1 UNK         0.5165 
     66 O         -80.3324   29.0853  -76.8292 O.2       1 UNK        -0.5079 
     67 H67       -85.2466   26.9280  -74.0848 H         1 UNK         0.0900 
     68 H68       -85.7886   26.8303  -75.7617 H         1 UNK         0.0900 
     69 H69       -86.3247   28.1639  -74.7360 H         1 UNK         0.0900 
     70 H70       -83.1273   27.6515  -73.9099 H         1 UNK         0.2959 
     71 H71       -82.1782   29.9761  -75.3131 H         1 UNK         0.1079 
     72 H72       -81.4213   29.7849  -73.0997 H         1 UNK         0.0837 
     73 H73       -80.0119   29.4818  -74.0697 H         1 UNK         0.0837 
     74 H74       -80.4469   27.5278  -70.5112 H         1 UNK         0.0685 
     75 H75       -80.2999   29.1396  -71.1506 H         1 UNK         0.0685 
     76 H76       -78.4922   26.3066  -69.9620 H         1 UNK         0.1434 
     77 H77       -74.6337   27.6225  -71.2787 H         1 UNK         0.1329 
     78 H78       -78.1664   29.6276  -72.6539 H         1 UNK         0.1335 
     79 H79       -74.6746   29.0625  -73.4075 H         1 UNK         0.0680 
     80 H80       -76.0649   30.0555  -73.7336 H         1 UNK         0.0680 
     81 H81       -72.8032   30.7771  -70.6238 H         1 UNK         0.1032 
     82 H82       -73.0670   29.3225  -71.5418 H         1 UNK         0.1032 
     83 H83       -72.0898   31.9784  -72.7032 H         1 UNK         0.0461 
     84 H84       -68.7840   29.7673  -72.6769 H         1 UNK         0.3453 
     85 H85       -69.9962   29.6352  -73.9265 H         1 UNK         0.3453 
     86 H86       -72.6906   29.4268  -74.0426 H         1 UNK         0.2984 
     87 H87       -73.5003   30.3385  -76.6063 H         1 UNK         0.0554 
     88 H88       -71.9659   30.1858  -78.5817 H         1 UNK         0.0847 
     89 H89       -70.6136   30.6967  -77.5723 H         1 UNK         0.0847 
     90 H90       -71.9555   31.7908  -77.8720 H         1 UNK         0.0847 
     91 H91       -73.0381   28.1857  -76.4949 H         1 UNK         0.3141 
     92 H92       -70.2732   26.2268  -76.5321 H         1 UNK         0.0743 
     93 H93       -69.7760   26.4646  -74.1471 H         1 UNK         0.0784 
     94 H94       -71.4770   26.5710  -73.7347 H         1 UNK         0.0784 
     95 H95       -70.8085   25.0602  -74.3543 H         1 UNK         0.0784 
     96 H96       -73.0288   25.8210  -75.6055 H         1 UNK         0.3213 
     97 H97       -74.4408   25.7738  -78.8009 H         1 UNK         0.0855 
     98 H98       -73.6795   23.1537  -77.3969 H         1 UNK         0.0814 
     99 H99       -73.3549   23.5447  -79.0802 H         1 UNK         0.0814 
    100 H100      -75.0130   23.3619  -78.5312 H         1 UNK         0.0814 
    101 H101      -75.3983   24.6348  -76.3698 H         1 UNK         0.3105 
    102 H102      -76.1692   27.5866  -74.6112 H         1 UNK         0.0547 
    103 H103      -78.0425   27.6267  -76.2039 H         1 UNK         0.0837 
    104 H104      -78.1054   25.8699  -76.2304 H         1 UNK         0.0837 
    105 H105      -78.5204   26.7518  -74.7570 H         1 UNK         0.0837 
    106 H106      -76.9429   24.8926  -74.1561 H         1 UNK         0.3020 
    107 H107      -73.9266   23.4775  -73.4193 H         1 UNK         0.1245 
    108 H108      -73.8562   24.9039  -71.2642 H         1 UNK         0.0781 
    109 H109      -73.9496   23.1828  -71.1224 H         1 UNK         0.0781 
    110 H110      -74.8037   26.0391  -69.4344 H         1 UNK         0.0836 
    111 H111      -76.3465   25.7944  -68.6679 H         1 UNK         0.0836 
    112 H112      -76.4401   22.6780  -72.4088 H         1 UNK         0.3022 
    113 H113      -76.9816   20.4658  -74.8556 H         1 UNK         0.0747 
    114 H114      -78.6692   20.2310  -73.0566 H         1 UNK         0.0793 
    115 H115      -77.1068   20.6096  -72.3643 H         1 UNK         0.0793 
    116 H116      -78.3473   21.8598  -72.4820 H         1 UNK         0.0793 
    117 H117      -78.7919   21.1343  -75.9448 H         1 UNK         0.3047 
    118 H118      -80.1428   22.5360  -77.0374 H         1 UNK         0.0822 
    119 H119      -81.5246   21.5215  -75.2051 H         1 UNK         0.0807 
    120 H120      -82.4882   22.6469  -76.1481 H         1 UNK         0.0807 
    121 H121      -81.8782   23.1204  -74.5629 H         1 UNK         0.0807 
    122 H122      -80.2923   25.1735  -75.7427 H         1 UNK         0.2946 
    123 H123      -79.9324   26.8270  -78.0245 H         1 UNK         0.1144 
    124 H124      -81.3946   26.4885  -80.0095 H         1 UNK         0.0793 
    125 H125      -81.7880   28.0051  -79.2230 H         1 UNK         0.0793 
    126 H126      -82.8325   26.6030  -79.0010 H         1 UNK         0.0793 
    127 H127      -82.1834   26.6328  -76.1360 H         1 UNK         0.2896 
@<TRIPOS>BOND
     1    1    2 1    
     2    1   67 1    
     3    1   68 1    
     4    1   69 1    
     5    2    3 2    
     6    2    4 am   BACKBONE|DICT|INTERRES
     7    4    5 1    
     8    4   70 1    
     9    5    6 1    
    10    5   65 1    
    11    5   71 1    
    12    6    7 1    
    13    6   72 1    
    14    6   73 1    
    15    7    8 1    
    16    8    9 1    
    17    8   74 1    
    18    8   75 1    
    19    9   10 ar   
    20    9   14 ar   
    21   10   11 ar   
    22   10   76 1    
    23   11   12 ar   
    24   11   48 1    
    25   12   13 ar   
    26   12   77 1    
    27   13   14 ar   
    28   13   15 1    
    29   14   78 1    
    30   15   16 1    
    31   15   79 1    
    32   15   80 1    
    33   16   17 1    
    34   17   18 1    
    35   17   81 1    
    36   17   82 1    
    37   18   19 1    
    38   18   22 1    
    39   18   83 1    
    40   19   20 am   BACKBONE|DICT|INTERRES
    41   19   21 2    
    42   20   84 1    
    43   20   85 1    
    44   22   23 am   BACKBONE|DICT|INTERRES
    45   22   86 1    
    46   23   24 2    
    47   23   25 1    
    48   25   26 1    
    49   25   27 1    
    50   25   87 1    
    51   26   88 1    
    52   26   89 1    
    53   26   90 1    
    54   27   28 am   BACKBONE|DICT|INTERRES
    55   27   91 1    
    56   28   29 2    
    57   28   30 1    
    58   30   31 1    
    59   30   32 1    
    60   30   92 1    
    61   31   93 1    
    62   31   94 1    
    63   31   95 1    
    64   32   33 am   BACKBONE|DICT|INTERRES
    65   32   96 1    
    66   33   34 2    
    67   33   35 1    
    68   35   36 1    
    69   35   37 1    
    70   35   97 1    
    71   36   98 1    
    72   36   99 1    
    73   36  100 1    
    74   37   38 am   BACKBONE|DICT|INTERRES
    75   37  101 1    
    76   38   39 2    
    77   38   40 1    
    78   40   41 1    
    79   40   42 1    
    80   40  102 1    
    81   41  103 1    
    82   41  104 1    
    83   41  105 1    
    84   42   43 am   BACKBONE|DICT|INTERRES
    85   42  106 1    
    86   43   44 2    
    87   43   45 1    
    88   45   46 1    
    89   45   49 1    
    90   45  107 1    
    91   46   47 1    
    92   46  108 1    
    93   46  109 1    
    94   47   48 1    
    95   48  110 1    
    96   48  111 1    
    97   49   50 am   BACKBONE|DICT|INTERRES
    98   49  112 1    
    99   50   51 2    
   100   50   52 1    
   101   52   53 1    
   102   52   54 1    
   103   52  113 1    
   104   53  114 1    
   105   53  115 1    
   106   53  116 1    
   107   54   55 am   BACKBONE|DICT|INTERRES
   108   54  117 1    
   109   55   56 2    
   110   55   57 1    
   111   57   58 1    
   112   57   59 1    
   113   57  118 1    
   114   58  119 1    
   115   58  120 1    
   116   58  121 1    
   117   59   60 am   BACKBONE|DICT|INTERRES
   118   59  122 1    
   119   60   61 2    
   120   60   62 1    
   121   62   63 1    
   122   62   64 1    
   123   62  123 1    
   124   63  124 1    
   125   63  125 1    
   126   63  126 1    
   127   64   65 am   BACKBONE|DICT|INTERRES
   128   64  127 1    
   129   65   66 2    
@<TRIPOS>SUBSTRUCTURE
     1 UNK         1 GROUP             0       ****    0 ROOT    
