@<TRIPOS>MOLECULE
3R135
127   129    1
SMALL
USER_CHARGES


@<TRIPOS>ATOM
      1 CA        -85.0979   29.7446  -76.8168 C.3       0 UNK        -0.1998 
      2 C         -83.8002   28.9507  -76.8169 C.2       0 UNK         0.4909 
      3 O         -83.2830   28.6249  -77.8857 O.2       0 UNK        -0.5240 
      4 N         -83.2690   28.6415  -75.6260 N.am      1 UNK        -0.4739 
      5 CA        -82.0432   27.8569  -75.4312 C.3       1 UNK         0.0864 
      6 C6        -81.5450   27.9697  -73.9680 C.3       11 UNK        -0.0881 
      7 S7        -79.8417   27.3643  -73.7280 S.3       11 UNK        -0.2682 
      8 C8        -79.3896   28.2637  -72.2105 C.3       11 UNK         0.0289 
      9 C9        -78.0020   27.8767  -71.7213 C.ar      11 UNK        -0.0687 
     10 C10       -77.7707   26.5864  -71.2439 C.ar      11 UNK        -0.0823 
     11 C11       -76.5015   26.2034  -70.8026 C.ar      11 UNK        -0.0830 
     12 C12       -75.4627   27.1395  -70.8030 C.ar      11 UNK        -0.1021 
     13 C13       -75.6840   28.4438  -71.2593 C.ar      11 UNK        -0.0753 
     14 C14       -76.9549   28.8029  -71.7238 C.ar      11 UNK        -0.0933 
     15 C15       -74.5717   29.4839  -71.2148 C.3       11 UNK         0.0166 
     16 S16       -73.0927   28.9957  -72.1626 S.3       11 UNK        -0.2615 
     17 C17       -72.3241   30.6307  -72.4173 C.3       11 UNK        -0.0865 
     18 CA        -72.5014   31.1172  -73.8879 C.3       10 UNK         0.0862 
     19 C         -72.4770   32.6719  -74.0374 C.2       10 UNK         0.5551 
     20 N         -72.0507   33.2174  -75.1704 N.am      10 UNK        -0.7319 
     21 O         -72.8845   33.3982  -73.1339 O.2       10 UNK        -0.5018 
     22 N         -71.6282   30.3910  -74.8320 N.am      10 UNK        -0.4509 
     23 C         -70.2897   30.4833  -74.8825 C.2       10 UNK         0.4899 
     24 O         -69.6224   31.1731  -74.1089 O.2       10 UNK        -0.4839 
     25 CA        -69.5804   29.6919  -75.9999 C.3       9 UNK         0.0222 
     26 CB        -68.0409   29.7551  -75.8991 C.3       9 UNK        -0.1966 
     27 N         -70.0279   28.3004  -76.1042 N.am      9 UNK        -0.4218 
     28 C         -70.0008   27.3471  -75.1615 C.2       9 UNK         0.5020 
     29 O         -69.5688   27.5177  -74.0200 O.2       9 UNK        -0.5274 
     30 CA        -70.5443   25.9649  -75.5834 C.3       8 UNK         0.0270 
     31 CB        -70.6313   24.9748  -74.4065 C.3       8 UNK        -0.1976 
     32 N         -71.8570   26.0654  -76.2318 N.am      8 UNK        -0.4313 
     33 C         -72.0575   26.4266  -77.5095 C.2       8 UNK         0.5041 
     34 O         -71.1345   26.6887  -78.2821 O.2       8 UNK        -0.5577 
     35 CA        -73.5052   26.5749  -78.0132 C.3       7 UNK         0.0284 
     36 CB        -73.9170   25.3369  -78.8250 C.3       7 UNK        -0.1958 
     37 N         -74.4835   26.8033  -76.9492 N.am      7 UNK        -0.4454 
     38 C         -74.5084   27.8746  -76.1401 C.2       7 UNK         0.5089 
     39 O         -73.7477   28.8372  -76.2571 O.2       7 UNK        -0.5125 
     40 CA        -75.5279   27.8503  -74.9835 C.3       6 UNK         0.0408 
     41 CB        -76.7912   28.6223  -75.3922 C.3       6 UNK        -0.1791 
     42 N         -75.8934   26.4973  -74.5374 N.am      6 UNK        -0.4762 
     43 C         -75.0241   25.5560  -74.1312 C.2       6 UNK         0.5007 
     44 O         -73.8273   25.7798  -73.9528 O.2       6 UNK        -0.5032 
     45 CA        -75.5127   24.0924  -74.0433 C.3       5 UNK         0.0783 
     46 C46       -75.3297   23.4565  -72.6372 C.3       11 UNK        -0.0857 
     47 S47       -76.7775   23.5366  -71.5289 S.3       11 UNK        -0.2512 
     48 C48       -76.2726   24.7857  -70.3013 C.3       11 UNK         0.0225 
     49 N         -76.8302   23.8375  -74.6432 N.am      5 UNK        -0.4615 
     50 C         -77.1347   23.9811  -75.9395 C.2       4 UNK         0.5053 
     51 O         -76.3278   24.3999  -76.7705 O.2       4 UNK        -0.5105 
     52 CA        -78.5634   23.6482  -76.4081 C.3       4 UNK         0.0263 
     53 CB        -78.5841   22.3382  -77.2197 C.3       4 UNK        -0.1981 
     54 N         -79.6053   23.6463  -75.3698 N.am      4 UNK        -0.4224 
     55 C         -79.7754   22.7963  -74.3434 C.2       3 UNK         0.4895 
     56 O         -78.9836   21.8968  -74.0643 O.2       3 UNK        -0.5091 
     57 CA        -81.0273   22.9786  -73.4610 C.3       3 UNK         0.0250 
     58 CB        -80.6516   23.6465  -72.1288 C.3       3 UNK        -0.1996 
     59 N         -82.0887   23.7610  -74.0983 N.am      3 UNK        -0.4254 
     60 C         -82.8295   23.3586  -75.1413 C.2       2 UNK         0.5004 
     61 O         -82.7829   22.2231  -75.6151 O.2       2 UNK        -0.5226 
     62 CA        -83.7597   24.4066  -75.7860 C.3       2 UNK         0.0269 
     63 CB        -85.2153   24.1765  -75.3482 C.3       2 UNK        -0.1926 
     64 N         -83.3915   25.8028  -75.5101 N.am      2 UNK        -0.4687 
     65 C         -82.2303   26.3838  -75.8526 C.2       1 UNK         0.5165 
     66 O         -81.3274   25.7975  -76.4513 O.2       1 UNK        -0.5079 
     67 H67       -84.9616   30.6862  -77.3482 H         1 UNK         0.0900 
     68 H68       -85.4378   29.9719  -75.8066 H         1 UNK         0.0900 
     69 H69       -85.8828   29.1801  -77.3195 H         1 UNK         0.0900 
     70 H70       -83.7362   28.9493  -74.7845 H         1 UNK         0.2959 
     71 H71       -81.2782   28.2827  -76.0851 H         1 UNK         0.1079 
     72 H72       -82.2094   27.4437  -73.2797 H         1 UNK         0.0837 
     73 H73       -81.5680   29.0174  -73.6630 H         1 UNK         0.0837 
     74 H74       -80.1192   28.0450  -71.4294 H         1 UNK         0.0685 
     75 H75       -79.4454   29.3369  -72.3994 H         1 UNK         0.0685 
     76 H76       -78.5801   25.8708  -71.2304 H         1 UNK         0.1434 
     77 H77       -74.4804   26.8590  -70.4479 H         1 UNK         0.1329 
     78 H78       -77.1331   29.8084  -72.0793 H         1 UNK         0.1335 
     79 H79       -74.9408   30.4354  -71.6013 H         1 UNK         0.0680 
     80 H80       -74.2875   29.6613  -70.1767 H         1 UNK         0.0680 
     81 H81       -72.7598   31.3306  -71.7030 H         1 UNK         0.1032 
     82 H82       -71.2697   30.5708  -72.1463 H         1 UNK         0.1032 
     83 H83       -73.5172   30.8599  -74.1911 H         1 UNK         0.0461 
     84 H84       -72.0487   34.2206  -75.2666 H         1 UNK         0.3453 
     85 H85       -71.7322   32.6353  -75.9281 H         1 UNK         0.3453 
     86 H86       -72.1172   29.7958  -75.4933 H         1 UNK         0.2984 
     87 H87       -69.8660   30.1718  -76.9370 H         1 UNK         0.0554 
     88 H88       -67.5663   29.2243  -76.7244 H         1 UNK         0.0847 
     89 H89       -67.6785   29.3191  -74.9675 H         1 UNK         0.0847 
     90 H90       -67.6878   30.7865  -75.9342 H         1 UNK         0.0847 
     91 H91       -70.3973   28.0189  -77.0086 H         1 UNK         0.3141 
     92 H92       -69.8335   25.5514  -76.3021 H         1 UNK         0.0743 
     93 H93       -69.6440   24.7864  -73.9830 H         1 UNK         0.0784 
     94 H94       -71.2597   25.3582  -73.6019 H         1 UNK         0.0784 
     95 H95       -71.0369   24.0134  -74.7218 H         1 UNK         0.0784 
     96 H96       -72.6600   25.9482  -75.6209 H         1 UNK         0.3213 
     97 H97       -73.5307   27.4432  -78.6750 H         1 UNK         0.0855 
     98 H98       -73.9136   24.4342  -78.2124 H         1 UNK         0.0814 
     99 H99       -73.2320   25.1693  -79.6574 H         1 UNK         0.0814 
    100 H100      -74.9162   25.4511  -79.2458 H         1 UNK         0.0814 
    101 H101      -75.1556   26.0584  -76.7882 H         1 UNK         0.3105 
    102 H102      -75.0723   28.3655  -74.1391 H         1 UNK         0.0547 
    103 H103      -77.3568   28.0979  -76.1632 H         1 UNK         0.0837 
    104 H104      -77.4491   28.7834  -74.5412 H         1 UNK         0.0837 
    105 H105      -76.5386   29.6083  -75.7848 H         1 UNK         0.0837 
    106 H106      -76.8610   26.2299  -74.6441 H         1 UNK         0.3020 
    107 H107      -74.8071   23.5645  -74.6897 H         1 UNK         0.1245 
    108 H108      -74.4485   23.8544  -72.1302 H         1 UNK         0.0781 
    109 H109      -75.1164   22.3946  -72.7680 H         1 UNK         0.0781 
    110 H110      -75.2319   24.6260  -70.0155 H         1 UNK         0.0836 
    111 H111      -76.8631   24.6407  -69.3958 H         1 UNK         0.0836 
    112 H112      -77.5289   23.4375  -74.0286 H         1 UNK         0.3022 
    113 H113      -78.8452   24.4539  -77.0880 H         1 UNK         0.0747 
    114 H114      -79.5776   22.1364  -77.6204 H         1 UNK         0.0793 
    115 H115      -77.8984   22.3940  -78.0664 H         1 UNK         0.0793 
    116 H116      -78.2836   21.4802  -76.6176 H         1 UNK         0.0793 
    117 H117      -80.3056   24.3708  -75.4989 H         1 UNK         0.3047 
    118 H118      -81.4211   21.9825  -73.2480 H         1 UNK         0.0822 
    119 H119      -79.8752   23.0809  -71.6117 H         1 UNK         0.0807 
    120 H120      -81.5082   23.7048  -71.4571 H         1 UNK         0.0807 
    121 H121      -80.2739   24.6573  -72.2810 H         1 UNK         0.0807 
    122 H122      -82.2129   24.7074  -73.7704 H         1 UNK         0.2946 
    123 H123      -83.6977   24.2591  -76.8667 H         1 UNK         0.1144 
    124 H124      -85.5327   23.1557  -75.5666 H         1 UNK         0.0793 
    125 H125      -85.8988   24.8441  -75.8732 H         1 UNK         0.0793 
    126 H126      -85.3446   24.3355  -74.2768 H         1 UNK         0.0793 
    127 H127      -84.0808   26.3659  -75.0328 H         1 UNK         0.2896 
@<TRIPOS>BOND
     1    1    2 1    
     2    1   67 1    
     3    1   68 1    
     4    1   69 1    
     5    2    3 2    
     6    2    4 am   BACKBONE|DICT|INTERRES
     7    4    5 1    
     8    4   70 1    
     9    5    6 1    
    10    5   65 1    
    11    5   71 1    
    12    6    7 1    
    13    6   72 1    
    14    6   73 1    
    15    7    8 1    
    16    8    9 1    
    17    8   74 1    
    18    8   75 1    
    19    9   10 ar   
    20    9   14 ar   
    21   10   11 ar   
    22   10   76 1    
    23   11   12 ar   
    24   11   48 1    
    25   12   13 ar   
    26   12   77 1    
    27   13   14 ar   
    28   13   15 1    
    29   14   78 1    
    30   15   16 1    
    31   15   79 1    
    32   15   80 1    
    33   16   17 1    
    34   17   18 1    
    35   17   81 1    
    36   17   82 1    
    37   18   19 1    
    38   18   22 1    
    39   18   83 1    
    40   19   20 am   BACKBONE|DICT|INTERRES
    41   19   21 2    
    42   20   84 1    
    43   20   85 1    
    44   22   23 am   BACKBONE|DICT|INTERRES
    45   22   86 1    
    46   23   24 2    
    47   23   25 1    
    48   25   26 1    
    49   25   27 1    
    50   25   87 1    
    51   26   88 1    
    52   26   89 1    
    53   26   90 1    
    54   27   28 am   BACKBONE|DICT|INTERRES
    55   27   91 1    
    56   28   29 2    
    57   28   30 1    
    58   30   31 1    
    59   30   32 1    
    60   30   92 1    
    61   31   93 1    
    62   31   94 1    
    63   31   95 1    
    64   32   33 am   BACKBONE|DICT|INTERRES
    65   32   96 1    
    66   33   34 2    
    67   33   35 1    
    68   35   36 1    
    69   35   37 1    
    70   35   97 1    
    71   36   98 1    
    72   36   99 1    
    73   36  100 1    
    74   37   38 am   BACKBONE|DICT|INTERRES
    75   37  101 1    
    76   38   39 2    
    77   38   40 1    
    78   40   41 1    
    79   40   42 1    
    80   40  102 1    
    81   41  103 1    
    82   41  104 1    
    83   41  105 1    
    84   42   43 am   BACKBONE|DICT|INTERRES
    85   42  106 1    
    86   43   44 2    
    87   43   45 1    
    88   45   46 1    
    89   45   49 1    
    90   45  107 1    
    91   46   47 1    
    92   46  108 1    
    93   46  109 1    
    94   47   48 1    
    95   48  110 1    
    96   48  111 1    
    97   49   50 am   BACKBONE|DICT|INTERRES
    98   49  112 1    
    99   50   51 2    
   100   50   52 1    
   101   52   53 1    
   102   52   54 1    
   103   52  113 1    
   104   53  114 1    
   105   53  115 1    
   106   53  116 1    
   107   54   55 am   BACKBONE|DICT|INTERRES
   108   54  117 1    
   109   55   56 2    
   110   55   57 1    
   111   57   58 1    
   112   57   59 1    
   113   57  118 1    
   114   58  119 1    
   115   58  120 1    
   116   58  121 1    
   117   59   60 am   BACKBONE|DICT|INTERRES
   118   59  122 1    
   119   60   61 2    
   120   60   62 1    
   121   62   63 1    
   122   62   64 1    
   123   62  123 1    
   124   63  124 1    
   125   63  125 1    
   126   63  126 1    
   127   64   65 am   BACKBONE|DICT|INTERRES
   128   64  127 1    
   129   65   66 2    
@<TRIPOS>SUBSTRUCTURE
     1 UNK         1 GROUP             0       ****    0 ROOT    
