@<TRIPOS>MOLECULE
3R135
127   129    1
SMALL
USER_CHARGES


@<TRIPOS>ATOM
      1 CA        -84.7307   30.7977  -75.7881 C.3       0 UNK        -0.1998 
      2 C         -83.5533   29.8388  -75.6917 C.2       0 UNK         0.4909 
      3 O         -82.8167   29.6746  -76.6653 O.2       0 UNK        -0.5240 
      4 N         -83.3657   29.2118  -74.5233 N.am      1 UNK        -0.4739 
      5 CA        -82.3288   28.2046  -74.2759 C.3       1 UNK         0.0864 
      6 C6        -81.9938   28.1091  -72.7645 C.3       11 UNK        -0.0881 
      7 S7        -80.3048   27.4823  -72.4762 S.3       11 UNK        -0.2682 
      8 C8        -79.3968   29.0204  -72.1218 C.3       11 UNK         0.0289 
      9 C9        -77.8957   28.7735  -72.0705 C.ar      11 UNK        -0.0687 
     10 C10       -77.3688   27.8503  -71.1634 C.ar      11 UNK        -0.0823 
     11 C11       -75.9996   27.5742  -71.1414 C.ar      11 UNK        -0.0830 
     12 C12       -75.1451   28.2623  -72.0074 C.ar      11 UNK        -0.1021 
     13 C13       -75.6564   29.2035  -72.9063 C.ar      11 UNK        -0.0753 
     14 C14       -77.0325   29.4530  -72.9355 C.ar      11 UNK        -0.0933 
     15 C15       -74.7313   29.9183  -73.8795 C.3       11 UNK         0.0166 
     16 S16       -74.3946   31.6310  -73.3650 S.3       11 UNK        -0.2615 
     17 C17       -73.1755   31.3827  -72.0275 C.3       11 UNK        -0.0865 
     18 CA        -71.7731   31.9642  -72.3751 C.3       10 UNK         0.0862 
     19 C         -70.8039   31.9591  -71.1518 C.2       10 UNK         0.5551 
     20 N         -69.4999   31.7993  -71.3434 N.am      10 UNK        -0.7319 
     21 O         -71.2317   32.1371  -70.0137 O.2       10 UNK        -0.5018 
     22 N         -71.2025   31.4138  -73.6215 N.am      10 UNK        -0.4509 
     23 C         -70.8579   30.1382  -73.8379 C.2       10 UNK         0.4899 
     24 O         -70.9656   29.2380  -73.0020 O.2       10 UNK        -0.4839 
     25 CA        -70.2418   29.8342  -75.2153 C.3       9 UNK         0.0222 
     26 CB        -68.7299   30.1153  -75.2008 C.3       9 UNK        -0.1966 
     27 N         -70.4632   28.4395  -75.6020 N.am      9 UNK        -0.4218 
     28 C         -71.6371   27.9475  -76.0165 C.2       9 UNK         0.5020 
     29 O         -72.6278   28.6467  -76.2420 O.2       9 UNK        -0.5274 
     30 CA        -71.7013   26.4197  -76.1894 C.3       8 UNK         0.0270 
     31 CB        -71.5185   25.7059  -74.8366 C.3       8 UNK        -0.1976 
     32 N         -72.9838   26.0127  -76.7657 N.am      8 UNK        -0.4313 
     33 C         -73.2364   25.9165  -78.0793 C.2       8 UNK         0.5041 
     34 O         -72.3800   26.0862  -78.9494 O.2       8 UNK        -0.5577 
     35 CA        -74.6710   25.5527  -78.5158 C.3       7 UNK         0.0284 
     36 CB        -74.7422   24.0832  -78.9613 C.3       7 UNK        -0.1958 
     37 N         -75.6690   25.7819  -77.4699 N.am      7 UNK        -0.4454 
     38 C         -76.1262   26.9881  -77.1071 C.2       7 UNK         0.5089 
     39 O         -75.8687   28.0251  -77.7185 O.2       7 UNK        -0.5125 
     40 CA        -77.0092   27.0620  -75.8460 C.3       6 UNK         0.0408 
     41 CB        -78.4551   27.4281  -76.2151 C.3       6 UNK        -0.1791 
     42 N         -76.9997   25.8538  -75.0060 N.am      6 UNK        -0.4762 
     43 C         -75.9235   25.4076  -74.3363 C.2       6 UNK         0.5007 
     44 O         -74.8122   25.9213  -74.4562 O.2       6 UNK        -0.5032 
     45 CA        -76.0638   24.1494  -73.4580 C.3       5 UNK         0.0783 
     46 C46       -76.3743   24.4662  -71.9722 C.3       11 UNK        -0.0857 
     47 S47       -74.8854   25.0194  -71.0649 S.3       11 UNK        -0.2512 
     48 C48       -75.4543   26.5167  -70.1930 C.3       11 UNK         0.0225 
     49 N         -77.0066   23.1847  -74.0322 N.am      5 UNK        -0.4615 
     50 C         -76.8006   21.8592  -74.0384 C.2       4 UNK         0.5053 
     51 O         -75.8351   21.3176  -73.4987 O.2       4 UNK        -0.5105 
     52 CA        -77.8247   20.9689  -74.7710 C.3       4 UNK         0.0263 
     53 CB        -78.7999   20.3379  -73.7637 C.3       4 UNK        -0.1981 
     54 N         -78.5936   21.6648  -75.8038 N.am      4 UNK        -0.4224 
     55 C         -78.0849   22.2529  -76.8955 C.2       3 UNK         0.4895 
     56 O         -76.8990   22.1874  -77.2170 O.2       3 UNK        -0.5091 
     57 CA        -79.0469   23.0941  -77.7565 C.3       3 UNK         0.0250 
     58 CB        -79.3675   22.3625  -79.0700 C.3       3 UNK        -0.1996 
     59 N         -80.3060   23.4858  -77.1038 N.am      3 UNK        -0.4254 
     60 C         -80.4130   24.2049  -75.9780 C.2       2 UNK         0.5004 
     61 O         -79.4512   24.5324  -75.2749 O.2       2 UNK        -0.5226 
     62 CA        -81.8247   24.6009  -75.5424 C.3       2 UNK         0.0269 
     63 CB        -82.3847   23.5965  -74.5201 C.3       2 UNK        -0.1926 
     64 N         -81.7368   25.9277  -74.9463 N.am      2 UNK        -0.4687 
     65 C         -82.7152   26.8343  -74.8827 C.2       1 UNK         0.5165 
     66 O         -83.8686   26.6169  -75.2657 O.2       1 UNK        -0.5079 
     67 H67       -84.3803   31.7984  -76.0396 H         1 UNK         0.0900 
     68 H68       -85.4174   30.4705  -76.5683 H         1 UNK         0.0900 
     69 H69       -85.2854   30.8582  -74.8518 H         1 UNK         0.0900 
     70 H70       -84.0254   29.3573  -73.7723 H         1 UNK         0.2959 
     71 H71       -81.4314   28.5413  -74.8009 H         1 UNK         0.1079 
     72 H72       -82.0747   29.0904  -72.2935 H         1 UNK         0.0837 
     73 H73       -82.7077   27.4721  -72.2383 H         1 UNK         0.0837 
     74 H74       -79.7301   29.4289  -71.1668 H         1 UNK         0.0685 
     75 H75       -79.6385   29.7617  -72.8853 H         1 UNK         0.0685 
     76 H76       -78.0365   27.3202  -70.4979 H         1 UNK         0.1434 
     77 H77       -74.0862   28.0416  -72.0011 H         1 UNK         0.1329 
     78 H78       -77.4285   30.1691  -73.6424 H         1 UNK         0.1335 
     79 H79       -73.7918   29.3749  -73.9832 H         1 UNK         0.0680 
     80 H80       -75.1848   29.9291  -74.8717 H         1 UNK         0.0680 
     81 H81       -73.0976   30.3251  -71.7742 H         1 UNK         0.1032 
     82 H82       -73.5802   31.8686  -71.1379 H         1 UNK         0.1032 
     83 H83       -71.9203   33.0244  -72.5845 H         1 UNK         0.0461 
     84 H84       -68.8787   31.8088  -70.5498 H         1 UNK         0.3453 
     85 H85       -69.1340   31.6627  -72.2714 H         1 UNK         0.3453 
     86 H86       -71.0587   32.0858  -74.3617 H         1 UNK         0.2984 
     87 H87       -70.7097   30.4807  -75.9611 H         1 UNK         0.0554 
     88 H88       -68.5266   31.1601  -74.9622 H         1 UNK         0.0847 
     89 H89       -68.2793   29.9160  -76.1734 H         1 UNK         0.0847 
     90 H90       -68.2116   29.5055  -74.4593 H         1 UNK         0.0847 
     91 H91       -69.7117   27.7946  -75.4055 H         1 UNK         0.3141 
     92 H92       -70.8904   26.1146  -76.8543 H         1 UNK         0.0743 
     93 H93       -70.5133   25.8560  -74.4416 H         1 UNK         0.0784 
     94 H94       -72.2168   26.0776  -74.0854 H         1 UNK         0.0784 
     95 H95       -71.6686   24.6302  -74.9296 H         1 UNK         0.0784 
     96 H96       -73.7544   25.9473  -76.1062 H         1 UNK         0.3213 
     97 H97       -74.9193   26.1807  -79.3743 H         1 UNK         0.0855 
     98 H98       -74.5017   23.4015  -78.1444 H         1 UNK         0.0814 
     99 H99       -74.0367   23.8853  -79.7694 H         1 UNK         0.0814 
    100 H100      -75.7357   23.8265  -79.3298 H         1 UNK         0.0814 
    101 H101      -75.9443   24.9836  -76.9161 H         1 UNK         0.3105 
    102 H102      -76.6091   27.8746  -75.2401 H         1 UNK         0.0547 
    103 H103      -79.0752   27.5325  -75.3259 H         1 UNK         0.0837 
    104 H104      -78.9082   26.6787  -76.8640 H         1 UNK         0.0837 
    105 H105      -78.4922   28.3801  -76.7461 H         1 UNK         0.0837 
    106 H106      -77.8937   25.3757  -74.9167 H         1 UNK         0.3020 
    107 H107      -75.0725   23.6897  -73.4920 H         1 UNK         0.1245 
    108 H108      -76.7263   23.5662  -71.4659 H         1 UNK         0.0781 
    109 H109      -77.1889   25.1858  -71.8875 H         1 UNK         0.0781 
    110 H110      -74.6190   26.9363  -69.6307 H         1 UNK         0.0836 
    111 H111      -76.2052   26.2316  -69.4543 H         1 UNK         0.0836 
    112 H112      -77.8335   23.5566  -74.4864 H         1 UNK         0.3022 
    113 H113      -77.2666   20.1677  -75.2599 H         1 UNK         0.0747 
    114 H114      -79.4757   19.6348  -74.2509 H         1 UNK         0.0793 
    115 H115      -78.2614   19.7846  -72.9928 H         1 UNK         0.0793 
    116 H116      -79.4044   21.0935  -73.2600 H         1 UNK         0.0793 
    117 H117      -79.5803   21.7822  -75.6282 H         1 UNK         0.3047 
    118 H118      -78.5150   24.0156  -78.0032 H         1 UNK         0.0822 
    119 H119      -79.9490   22.9913  -79.7445 H         1 UNK         0.0807 
    120 H120      -79.9308   21.4453  -78.8936 H         1 UNK         0.0807 
    121 H121      -78.4533   22.0869  -79.5983 H         1 UNK         0.0807 
    122 H122      -81.1523   23.2369  -77.5965 H         1 UNK         0.2946 
    123 H123      -82.4748   24.6400  -76.4196 H         1 UNK         0.1144 
    124 H124      -81.7562   23.5362  -73.6303 H         1 UNK         0.0793 
    125 H125      -82.4473   22.5948  -74.9470 H         1 UNK         0.0793 
    126 H126      -83.3892   23.8744  -74.2003 H         1 UNK         0.0793 
    127 H127      -80.8188   26.1583  -74.5836 H         1 UNK         0.2896 
@<TRIPOS>BOND
     1    1    2 1    
     2    1   67 1    
     3    1   68 1    
     4    1   69 1    
     5    2    3 2    
     6    2    4 am   BACKBONE|DICT|INTERRES
     7    4    5 1    
     8    4   70 1    
     9    5    6 1    
    10    5   65 1    
    11    5   71 1    
    12    6    7 1    
    13    6   72 1    
    14    6   73 1    
    15    7    8 1    
    16    8    9 1    
    17    8   74 1    
    18    8   75 1    
    19    9   10 ar   
    20    9   14 ar   
    21   10   11 ar   
    22   10   76 1    
    23   11   12 ar   
    24   11   48 1    
    25   12   13 ar   
    26   12   77 1    
    27   13   14 ar   
    28   13   15 1    
    29   14   78 1    
    30   15   16 1    
    31   15   79 1    
    32   15   80 1    
    33   16   17 1    
    34   17   18 1    
    35   17   81 1    
    36   17   82 1    
    37   18   19 1    
    38   18   22 1    
    39   18   83 1    
    40   19   20 am   BACKBONE|DICT|INTERRES
    41   19   21 2    
    42   20   84 1    
    43   20   85 1    
    44   22   23 am   BACKBONE|DICT|INTERRES
    45   22   86 1    
    46   23   24 2    
    47   23   25 1    
    48   25   26 1    
    49   25   27 1    
    50   25   87 1    
    51   26   88 1    
    52   26   89 1    
    53   26   90 1    
    54   27   28 am   BACKBONE|DICT|INTERRES
    55   27   91 1    
    56   28   29 2    
    57   28   30 1    
    58   30   31 1    
    59   30   32 1    
    60   30   92 1    
    61   31   93 1    
    62   31   94 1    
    63   31   95 1    
    64   32   33 am   BACKBONE|DICT|INTERRES
    65   32   96 1    
    66   33   34 2    
    67   33   35 1    
    68   35   36 1    
    69   35   37 1    
    70   35   97 1    
    71   36   98 1    
    72   36   99 1    
    73   36  100 1    
    74   37   38 am   BACKBONE|DICT|INTERRES
    75   37  101 1    
    76   38   39 2    
    77   38   40 1    
    78   40   41 1    
    79   40   42 1    
    80   40  102 1    
    81   41  103 1    
    82   41  104 1    
    83   41  105 1    
    84   42   43 am   BACKBONE|DICT|INTERRES
    85   42  106 1    
    86   43   44 2    
    87   43   45 1    
    88   45   46 1    
    89   45   49 1    
    90   45  107 1    
    91   46   47 1    
    92   46  108 1    
    93   46  109 1    
    94   47   48 1    
    95   48  110 1    
    96   48  111 1    
    97   49   50 am   BACKBONE|DICT|INTERRES
    98   49  112 1    
    99   50   51 2    
   100   50   52 1    
   101   52   53 1    
   102   52   54 1    
   103   52  113 1    
   104   53  114 1    
   105   53  115 1    
   106   53  116 1    
   107   54   55 am   BACKBONE|DICT|INTERRES
   108   54  117 1    
   109   55   56 2    
   110   55   57 1    
   111   57   58 1    
   112   57   59 1    
   113   57  118 1    
   114   58  119 1    
   115   58  120 1    
   116   58  121 1    
   117   59   60 am   BACKBONE|DICT|INTERRES
   118   59  122 1    
   119   60   61 2    
   120   60   62 1    
   121   62   63 1    
   122   62   64 1    
   123   62  123 1    
   124   63  124 1    
   125   63  125 1    
   126   63  126 1    
   127   64   65 am   BACKBONE|DICT|INTERRES
   128   64  127 1    
   129   65   66 2    
@<TRIPOS>SUBSTRUCTURE
     1 UNK         1 GROUP             0       ****    0 ROOT    
