@<TRIPOS>MOLECULE
3R135
127   129    1
SMALL
USER_CHARGES


@<TRIPOS>ATOM
      1 CA        -84.3983   23.7060  -73.5806 C.3       0 UNK        -0.1998 
      2 C         -84.5125   25.2230  -73.5733 C.2       0 UNK         0.4909 
      3 O         -85.5113   25.7654  -74.0465 O.2       0 UNK        -0.5240 
      4 N         -83.4959   25.9119  -73.0383 N.am      1 UNK        -0.4739 
      5 CA        -83.4169   27.3769  -72.9586 C.3       1 UNK         0.0864 
      6 C6        -82.3307   27.8249  -71.9480 C.3       11 UNK        -0.0881 
      7 S7        -80.6415   27.2693  -72.3746 S.3       11 UNK        -0.2682 
      8 C8        -79.7066   28.0750  -71.0455 C.3       11 UNK         0.0289 
      9 C9        -78.2088   27.9155  -71.2453 C.ar      11 UNK        -0.0687 
     10 C10       -77.5175   26.8740  -70.6196 C.ar      11 UNK        -0.0823 
     11 C11       -76.1297   26.7629  -70.7530 C.ar      11 UNK        -0.0830 
     12 C12       -75.4362   27.6951  -71.5327 C.ar      11 UNK        -0.1021 
     13 C13       -76.1182   28.7424  -72.1595 C.ar      11 UNK        -0.0753 
     14 C14       -77.5051   28.8423  -72.0191 C.ar      11 UNK        -0.0933 
     15 C15       -75.3571   29.8057  -72.9350 C.3       11 UNK         0.0166 
     16 S16       -75.3308   29.4561  -74.7172 S.3       11 UNK        -0.2615 
     17 C17       -74.5792   30.9991  -75.3498 C.3       11 UNK        -0.0865 
     18 CA        -73.2243   30.7828  -76.0861 C.3       10 UNK         0.0862 
     19 C         -72.6491   32.1033  -76.6817 C.2       10 UNK         0.5551 
     20 N         -71.3356   32.2897  -76.7281 N.am      10 UNK        -0.7319 
     21 O         -73.4014   32.9617  -77.1369 O.2       10 UNK        -0.5018 
     22 N         -72.2578   29.9811  -75.3153 N.am      10 UNK        -0.4509 
     23 C         -71.7581   30.2724  -74.1049 C.2       10 UNK         0.4899 
     24 O         -71.9928   31.3215  -73.5046 O.2       10 UNK        -0.4839 
     25 CA        -70.8705   29.2055  -73.4340 C.3       9 UNK         0.0222 
     26 CB        -71.1821   29.0678  -71.9320 C.3       9 UNK        -0.1966 
     27 N         -71.0405   27.8982  -74.0733 N.am      9 UNK        -0.4218 
     28 C         -70.1017   27.2421  -74.7652 C.2       9 UNK         0.5020 
     29 O         -68.9282   27.6056  -74.8563 O.2       9 UNK        -0.5274 
     30 CA        -70.5561   25.9731  -75.5087 C.3       8 UNK         0.0270 
     31 CB        -70.3113   24.7279  -74.6417 C.3       8 UNK        -0.1976 
     32 N         -71.9576   25.9968  -75.9542 N.am      8 UNK        -0.4313 
     33 C         -72.4640   26.8686  -76.8432 C.2       8 UNK         0.5041 
     34 O         -71.8152   27.8164  -77.2892 O.2       8 UNK        -0.5577 
     35 CA        -73.9337   26.6925  -77.2894 C.3       7 UNK         0.0284 
     36 CB        -74.1892   27.2354  -78.7105 C.3       7 UNK        -0.1958 
     37 N         -74.4531   25.3270  -77.1611 N.am      7 UNK        -0.4454 
     38 C         -73.9421   24.2025  -77.6853 C.2       7 UNK         0.5089 
     39 O         -73.0099   24.1827  -78.4906 O.2       7 UNK        -0.5125 
     40 CA        -74.5456   22.8729  -77.1795 C.3       6 UNK         0.0408 
     41 CB        -73.5315   21.7125  -77.2503 C.3       6 UNK        -0.1791 
     42 N         -75.1228   22.9483  -75.8273 N.am      6 UNK        -0.4762 
     43 C         -74.5354   23.3777  -74.6979 C.2       6 UNK         0.5007 
     44 O         -73.3793   23.8019  -74.6625 O.2       6 UNK        -0.5032 
     45 CA        -75.3972   23.3876  -73.4128 C.3       5 UNK         0.0783 
     46 C46       -74.6853   24.1060  -72.2385 C.3       11 UNK        -0.0857 
     47 S47       -75.6474   24.0179  -70.6918 S.3       11 UNK        -0.2512 
     48 C48       -75.3754   25.6771  -69.9968 C.3       11 UNK         0.0225 
     49 N         -76.7331   23.9445  -73.6651 N.am      5 UNK        -0.4615 
     50 C         -77.7519   23.2785  -74.2204 C.2       4 UNK         0.5053 
     51 O         -77.6755   22.1019  -74.5752 O.2       4 UNK        -0.5105 
     52 CA        -79.0599   24.0456  -74.4678 C.3       4 UNK         0.0263 
     53 CB        -80.0402   23.8102  -73.3081 C.3       4 UNK        -0.1981 
     54 N         -78.9225   25.4879  -74.7011 N.am      4 UNK        -0.4224 
     55 C         -78.1860   26.0766  -75.6570 C.2       3 UNK         0.4895 
     56 O         -77.3609   25.4869  -76.3587 O.2       3 UNK        -0.5091 
     57 CA        -78.4617   27.5788  -75.8733 C.3       3 UNK         0.0250 
     58 CB        -77.7307   28.1584  -77.1041 C.3       3 UNK        -0.1996 
     59 N         -79.9024   27.8720  -75.9423 N.am      3 UNK        -0.4254 
     60 C         -80.7831   27.4031  -76.8432 C.2       2 UNK         0.5004 
     61 O         -80.4895   26.6604  -77.7813 O.2       2 UNK        -0.5226 
     62 CA        -82.2489   27.7992  -76.6124 C.3       2 UNK         0.0269 
     63 CB        -83.2094   27.2222  -77.6703 C.3       2 UNK        -0.1926 
     64 N         -82.6477   27.3219  -75.2915 N.am      2 UNK        -0.4687 
     65 C         -83.2152   28.0600  -74.3303 C.2       1 UNK         0.5165 
     66 O         -83.5490   29.2366  -74.4782 O.2       1 UNK        -0.5079 
     67 H67       -84.3865   23.3360  -74.6054 H         1 UNK         0.0900 
     68 H68       -85.2520   23.2634  -73.0682 H         1 UNK         0.0900 
     69 H69       -83.4911   23.3617  -73.0843 H         1 UNK         0.0900 
     70 H70       -82.7085   25.4184  -72.6429 H         1 UNK         0.2959 
     71 H71       -84.3796   27.7324  -72.5837 H         1 UNK         0.1079 
     72 H72       -82.5763   27.4421  -70.9560 H         1 UNK         0.0837 
     73 H73       -82.3316   28.9126  -71.8513 H         1 UNK         0.0837 
     74 H74       -79.9621   29.1353  -71.0115 H         1 UNK         0.0685 
     75 H75       -80.0090   27.6541  -70.0852 H         1 UNK         0.0685 
     76 H76       -78.0555   26.1615  -70.0088 H         1 UNK         0.1434 
     77 H77       -74.3617   27.6242  -71.6269 H         1 UNK         0.1329 
     78 H78       -78.0345   29.6572  -72.4940 H         1 UNK         0.1335 
     79 H79       -75.8210   30.7786  -72.7647 H         1 UNK         0.0680 
     80 H80       -74.3345   29.8862  -72.5654 H         1 UNK         0.0680 
     81 H81       -74.4531   31.7142  -74.5353 H         1 UNK         0.1032 
     82 H82       -75.3038   31.4537  -76.0277 H         1 UNK         0.1032 
     83 H83       -73.4447   30.1718  -76.9619 H         1 UNK         0.0461 
     84 H84       -70.9687   33.1410  -77.1234 H         1 UNK         0.3453 
     85 H85       -70.7106   31.5861  -76.3691 H         1 UNK         0.3453 
     86 H86       -71.9486   29.1365  -75.7852 H         1 UNK         0.2984 
     87 H87       -69.8397   29.5502  -73.5356 H         1 UNK         0.0554 
     88 H88       -70.5439   28.3187  -71.4632 H         1 UNK         0.0847 
     89 H89       -72.2188   28.7804  -71.7582 H         1 UNK         0.0847 
     90 H90       -71.0114   30.0080  -71.4059 H         1 UNK         0.0847 
     91 H91       -71.9748   27.5137  -74.0672 H         1 UNK         0.3141 
     92 H92       -69.9370   25.8871  -76.4041 H         1 UNK         0.0743 
     93 H93       -70.9187   24.7416  -73.7357 H         1 UNK         0.0784 
     94 H94       -70.5451   23.8130  -75.1869 H         1 UNK         0.0784 
     95 H95       -69.2666   24.6635  -74.3342 H         1 UNK         0.0784 
     96 H96       -72.5488   25.2419  -75.6113 H         1 UNK         0.3213 
     97 H97       -74.5163   27.2952  -76.5941 H         1 UNK         0.0855 
     98 H98       -73.9497   28.2974  -78.7753 H         1 UNK         0.0814 
     99 H99       -75.2353   27.1239  -78.9955 H         1 UNK         0.0814 
    100 H100      -73.5815   26.7182  -79.4535 H         1 UNK         0.0814 
    101 H101      -75.2789   25.2273  -76.5785 H         1 UNK         0.3105 
    102 H102      -75.3716   22.6386  -77.8523 H         1 UNK         0.0547 
    103 H103      -73.1873   21.5512  -78.2726 H         1 UNK         0.0837 
    104 H104      -72.6511   21.9106  -76.6377 H         1 UNK         0.0837 
    105 H105      -73.9737   20.7766  -76.9096 H         1 UNK         0.0837 
    106 H106      -76.0852   22.6369  -75.7433 H         1 UNK         0.3020 
    107 H107      -75.5120   22.3397  -73.1254 H         1 UNK         0.1245 
    108 H108      -74.4905   25.1478  -72.4968 H         1 UNK         0.0781 
    109 H109      -73.7112   23.6533  -72.0429 H         1 UNK         0.0781 
    110 H110      -74.3049   25.8875  -69.9736 H         1 UNK         0.0836 
    111 H111      -75.7037   25.6768  -68.9564 H         1 UNK         0.0836 
    112 H112      -76.8709   24.9116  -73.4107 H         1 UNK         0.3022 
    113 H113      -79.5023   23.6253  -75.3733 H         1 UNK         0.0747 
    114 H114      -81.0209   24.2291  -73.5291 H         1 UNK         0.0793 
    115 H115      -80.1809   22.7442  -73.1230 H         1 UNK         0.0793 
    116 H116      -79.6805   24.2576  -72.3803 H         1 UNK         0.0793 
    117 H117      -79.5252   26.0812  -74.1463 H         1 UNK         0.3047 
    118 H118      -78.0800   28.0904  -74.9884 H         1 UNK         0.0822 
    119 H119      -77.9264   29.2246  -77.2157 H         1 UNK         0.0807 
    120 H120      -78.0266   27.6616  -78.0283 H         1 UNK         0.0807 
    121 H121      -76.6535   28.0392  -77.0089 H         1 UNK         0.0807 
    122 H122      -80.2639   28.4490  -75.1951 H         1 UNK         0.2946 
    123 H123      -82.2959   28.8897  -76.6631 H         1 UNK         0.1144 
    124 H124      -82.9380   27.5606  -78.6711 H         1 UNK         0.0793 
    125 H125      -84.2353   27.5420  -77.4871 H         1 UNK         0.0793 
    126 H126      -83.1960   26.1316  -77.6769 H         1 UNK         0.0793 
    127 H127      -82.3970   26.3694  -75.0671 H         1 UNK         0.2896 
@<TRIPOS>BOND
     1    1    2 1    
     2    1   67 1    
     3    1   68 1    
     4    1   69 1    
     5    2    3 2    
     6    2    4 am   BACKBONE|DICT|INTERRES
     7    4    5 1    
     8    4   70 1    
     9    5    6 1    
    10    5   65 1    
    11    5   71 1    
    12    6    7 1    
    13    6   72 1    
    14    6   73 1    
    15    7    8 1    
    16    8    9 1    
    17    8   74 1    
    18    8   75 1    
    19    9   10 ar   
    20    9   14 ar   
    21   10   11 ar   
    22   10   76 1    
    23   11   12 ar   
    24   11   48 1    
    25   12   13 ar   
    26   12   77 1    
    27   13   14 ar   
    28   13   15 1    
    29   14   78 1    
    30   15   16 1    
    31   15   79 1    
    32   15   80 1    
    33   16   17 1    
    34   17   18 1    
    35   17   81 1    
    36   17   82 1    
    37   18   19 1    
    38   18   22 1    
    39   18   83 1    
    40   19   20 am   BACKBONE|DICT|INTERRES
    41   19   21 2    
    42   20   84 1    
    43   20   85 1    
    44   22   23 am   BACKBONE|DICT|INTERRES
    45   22   86 1    
    46   23   24 2    
    47   23   25 1    
    48   25   26 1    
    49   25   27 1    
    50   25   87 1    
    51   26   88 1    
    52   26   89 1    
    53   26   90 1    
    54   27   28 am   BACKBONE|DICT|INTERRES
    55   27   91 1    
    56   28   29 2    
    57   28   30 1    
    58   30   31 1    
    59   30   32 1    
    60   30   92 1    
    61   31   93 1    
    62   31   94 1    
    63   31   95 1    
    64   32   33 am   BACKBONE|DICT|INTERRES
    65   32   96 1    
    66   33   34 2    
    67   33   35 1    
    68   35   36 1    
    69   35   37 1    
    70   35   97 1    
    71   36   98 1    
    72   36   99 1    
    73   36  100 1    
    74   37   38 am   BACKBONE|DICT|INTERRES
    75   37  101 1    
    76   38   39 2    
    77   38   40 1    
    78   40   41 1    
    79   40   42 1    
    80   40  102 1    
    81   41  103 1    
    82   41  104 1    
    83   41  105 1    
    84   42   43 am   BACKBONE|DICT|INTERRES
    85   42  106 1    
    86   43   44 2    
    87   43   45 1    
    88   45   46 1    
    89   45   49 1    
    90   45  107 1    
    91   46   47 1    
    92   46  108 1    
    93   46  109 1    
    94   47   48 1    
    95   48  110 1    
    96   48  111 1    
    97   49   50 am   BACKBONE|DICT|INTERRES
    98   49  112 1    
    99   50   51 2    
   100   50   52 1    
   101   52   53 1    
   102   52   54 1    
   103   52  113 1    
   104   53  114 1    
   105   53  115 1    
   106   53  116 1    
   107   54   55 am   BACKBONE|DICT|INTERRES
   108   54  117 1    
   109   55   56 2    
   110   55   57 1    
   111   57   58 1    
   112   57   59 1    
   113   57  118 1    
   114   58  119 1    
   115   58  120 1    
   116   58  121 1    
   117   59   60 am   BACKBONE|DICT|INTERRES
   118   59  122 1    
   119   60   61 2    
   120   60   62 1    
   121   62   63 1    
   122   62   64 1    
   123   62  123 1    
   124   63  124 1    
   125   63  125 1    
   126   63  126 1    
   127   64   65 am   BACKBONE|DICT|INTERRES
   128   64  127 1    
   129   65   66 2    
@<TRIPOS>SUBSTRUCTURE
     1 UNK         1 GROUP             0       ****    0 ROOT    
