@<TRIPOS>MOLECULE
3R135
127   129    1
SMALL
USER_CHARGES


@<TRIPOS>ATOM
      1 CA        -81.3215   22.0985  -71.7772 C.3       0 UNK        -0.1998 
      2 C         -81.3948   23.4832  -72.4016 C.2       0 UNK         0.4909 
      3 O         -80.4957   23.8483  -73.1577 O.2       0 UNK        -0.5240 
      4 N         -82.4609   24.2376  -72.0915 N.am      1 UNK        -0.4739 
      5 CA        -82.7732   25.6006  -72.5528 C.3       1 UNK         0.0864 
      6 C6        -82.1526   26.7152  -71.6548 C.3       11 UNK        -0.0881 
      7 S7        -80.3294   26.8460  -71.6663 S.3       11 UNK        -0.2682 
      8 C8        -80.0827   28.4330  -70.8152 C.3       11 UNK         0.0289 
      9 C9        -78.7781   29.0753  -71.2558 C.ar      11 UNK        -0.0687 
     10 C10       -78.7537   29.8774  -72.3999 C.ar      11 UNK        -0.0823 
     11 C11       -77.5590   30.4557  -72.8381 C.ar      11 UNK        -0.0830 
     12 C12       -76.3865   30.2455  -72.1079 C.ar      11 UNK        -0.1021 
     13 C13       -76.3989   29.4445  -70.9617 C.ar      11 UNK        -0.0753 
     14 C14       -77.5972   28.8604  -70.5386 C.ar      11 UNK        -0.0933 
     15 C15       -75.1065   29.1969  -70.2031 C.3       11 UNK         0.0166 
     16 S16       -74.1534   27.8755  -71.0071 S.3       11 UNK        -0.2615 
     17 C17       -72.4406   28.3433  -70.5789 C.3       11 UNK        -0.0865 
     18 CA        -71.8692   29.5225  -71.4181 C.3       10 UNK         0.0862 
     19 C         -70.3704   29.7622  -71.0708 C.2       10 UNK         0.5551 
     20 N         -69.4360   29.5979  -71.9991 N.am      10 UNK        -0.7319 
     21 O         -70.0528   30.1043  -69.9343 O.2       10 UNK        -0.5018 
     22 N         -72.1741   29.3809  -72.8513 N.am      10 UNK        -0.4509 
     23 C         -72.0967   30.3423  -73.7769 C.2       10 UNK         0.4899 
     24 O         -71.6890   31.4810  -73.5429 O.2       10 UNK        -0.4839 
     25 CA        -72.5662   29.9654  -75.1991 C.3       9 UNK         0.0222 
     26 CB        -72.3748   31.1096  -76.2119 C.3       9 UNK        -0.1966 
     27 N         -71.9339   28.7499  -75.7280 N.am      9 UNK        -0.4218 
     28 C         -72.2440   27.4995  -75.3635 C.2       9 UNK         0.5020 
     29 O         -73.0279   27.2340  -74.4528 O.2       9 UNK        -0.5274 
     30 CA        -71.5435   26.3568  -76.1021 C.3       8 UNK         0.0270 
     31 CB        -70.5030   25.6742  -75.1938 C.3       8 UNK        -0.1976 
     32 N         -72.5548   25.3967  -76.5422 N.am      8 UNK        -0.4313 
     33 C         -72.3897   24.5083  -77.5306 C.2       8 UNK         0.5041 
     34 O         -71.3306   24.3547  -78.1418 O.2       8 UNK        -0.5577 
     35 CA        -73.6123   23.6658  -77.9341 C.3       7 UNK         0.0284 
     36 CB        -73.9067   22.5645  -76.9018 C.3       7 UNK        -0.1958 
     37 N         -74.8007   24.4942  -78.1468 N.am      7 UNK        -0.4454 
     38 C         -74.9807   25.2957  -79.2073 C.2       7 UNK         0.5089 
     39 O         -74.2041   25.3532  -80.1616 O.2       7 UNK        -0.5125 
     40 CA        -76.2291   26.1974  -79.2088 C.3       6 UNK         0.0408 
     41 CB        -77.4189   25.4823  -79.8676 C.3       6 UNK        -0.1791 
     42 N         -76.6114   26.6530  -77.8717 N.am      6 UNK        -0.4762 
     43 C         -75.8771   27.4729  -77.1048 C.2       6 UNK         0.5007 
     44 O         -74.8244   27.9929  -77.4749 O.2       6 UNK        -0.5032 
     45 CA        -76.4007   27.7285  -75.6762 C.3       5 UNK         0.0783 
     46 C46       -77.4220   28.8968  -75.6598 C.3       11 UNK        -0.0857 
     47 S47       -76.5902   30.5102  -75.4554 S.3       11 UNK        -0.2512 
     48 C48       -77.5379   31.2947  -74.1086 C.3       11 UNK         0.0225 
     49 N         -76.9426   26.5130  -75.0559 N.am      5 UNK        -0.4615 
     50 C         -76.2433   25.3951  -74.8097 C.2       4 UNK         0.5053 
     51 O         -75.0586   25.2430  -75.0967 O.2       4 UNK        -0.5105 
     52 CA        -77.0177   24.2147  -74.2058 C.3       4 UNK         0.0263 
     53 CB        -77.2513   24.4286  -72.7020 C.3       4 UNK        -0.1981 
     54 N         -78.2939   23.9897  -74.8857 N.am      4 UNK        -0.4224 
     55 C         -78.4159   23.6604  -76.1801 C.2       3 UNK         0.4895 
     56 O         -77.4608   23.4214  -76.9197 O.2       3 UNK        -0.5091 
     57 CA        -79.8389   23.6465  -76.7621 C.3       3 UNK         0.0250 
     58 CB        -80.5453   22.3177  -76.4505 C.3       3 UNK        -0.1996 
     59 N         -80.6611   24.7647  -76.2909 N.am      3 UNK        -0.4254 
     60 C         -80.4011   26.0625  -76.4977 C.2       2 UNK         0.5004 
     61 O         -79.4298   26.4644  -77.1379 O.2       2 UNK        -0.5226 
     62 CA        -81.3498   27.0978  -75.8646 C.3       2 UNK         0.0269 
     63 CB        -82.5379   27.4083  -76.7951 C.3       2 UNK        -0.1926 
     64 N         -81.7898   26.7652  -74.5005 N.am      2 UNK        -0.4687 
     65 C         -82.5947   25.7780  -74.0815 C.2       1 UNK         0.5165 
     66 O         -83.1683   24.9965  -74.8438 O.2       1 UNK        -0.5079 
     67 H67       -82.1707   21.8975  -71.1245 H         1 UNK         0.0900 
     68 H68       -81.3036   21.3378  -72.5570 H         1 UNK         0.0900 
     69 H69       -80.4099   22.0038  -71.1879 H         1 UNK         0.0900 
     70 H70       -83.1616   23.8357  -71.4847 H         1 UNK         0.2959 
     71 H71       -83.8527   25.6858  -72.4166 H         1 UNK         0.1079 
     72 H72       -82.5776   27.6821  -71.9306 H         1 UNK         0.0837 
     73 H73       -82.4613   26.5528  -70.6209 H         1 UNK         0.0837 
     74 H74       -80.9111   29.1100  -71.0292 H         1 UNK         0.0685 
     75 H75       -80.0882   28.2697  -69.7364 H         1 UNK         0.0685 
     76 H76       -79.6655   30.0340  -72.9601 H         1 UNK         0.1434 
     77 H77       -75.4573   30.6833  -72.4473 H         1 UNK         0.1329 
     78 H78       -77.6087   28.2290  -69.6607 H         1 UNK         0.1335 
     79 H79       -74.5264   30.1196  -70.1705 H         1 UNK         0.0680 
     80 H80       -75.3077   28.9204  -69.1671 H         1 UNK         0.0680 
     81 H81       -72.3957   28.5746  -69.5128 H         1 UNK         0.1032 
     82 H82       -71.8226   27.4541  -70.7180 H         1 UNK         0.1032 
     83 H83       -72.3843   30.4279  -71.0934 H         1 UNK         0.0461 
     84 H84       -68.4691   29.7581  -71.7643 H         1 UNK         0.3453 
     85 H85       -69.6938   29.3299  -72.9348 H         1 UNK         0.3453 
     86 H86       -72.5395   28.4779  -73.1468 H         1 UNK         0.2984 
     87 H87       -73.6393   29.7781  -75.1272 H         1 UNK         0.0554 
     88 H88       -72.8910   32.0129  -75.8836 H         1 UNK         0.0847 
     89 H89       -72.7844   30.8465  -77.1875 H         1 UNK         0.0847 
     90 H90       -71.3221   31.3631  -76.3430 H         1 UNK         0.0847 
     91 H91       -71.2467   28.8851  -76.4556 H         1 UNK         0.3141 
     92 H92       -71.0396   26.7630  -76.9818 H         1 UNK         0.0743 
     93 H93       -70.9718   25.2218  -74.3188 H         1 UNK         0.0784 
     94 H94       -69.9602   24.8920  -75.7243 H         1 UNK         0.0784 
     95 H95       -69.7655   26.3932  -74.8350 H         1 UNK         0.0784 
     96 H96       -73.4537   25.4591  -76.0602 H         1 UNK         0.3213 
     97 H97       -73.3753   23.1722  -78.8793 H         1 UNK         0.0855 
     98 H98       -74.1285   22.9713  -75.9159 H         1 UNK         0.0814 
     99 H99       -73.0494   21.8994  -76.7913 H         1 UNK         0.0814 
    100 H100      -74.7557   21.9526  -77.2075 H         1 UNK         0.0814 
    101 H101      -75.5049   24.4889  -77.4181 H         1 UNK         0.3105 
    102 H102      -75.9963   27.0826  -79.8043 H         1 UNK         0.0547 
    103 H103      -77.1767   25.1832  -80.8882 H         1 UNK         0.0837 
    104 H104      -77.7018   24.5814  -79.3233 H         1 UNK         0.0837 
    105 H105      -78.2939   26.1306  -79.9178 H         1 UNK         0.0837 
    106 H106      -77.5071   26.3309  -77.5136 H         1 UNK         0.3020 
    107 H107      -75.5374   28.0049  -75.0658 H         1 UNK         0.1245 
    108 H108      -78.1329   28.7593  -74.8465 H         1 UNK         0.0781 
    109 H109      -78.0330   28.9213  -76.5647 H         1 UNK         0.0781 
    110 H110      -78.5513   31.4939  -74.4608 H         1 UNK         0.0836 
    111 H111      -77.0965   32.2674  -73.8873 H         1 UNK         0.0836 
    112 H112      -77.9242   26.5215  -74.8258 H         1 UNK         0.3022 
    113 H113      -76.4107   23.3158  -74.3327 H         1 UNK         0.0747 
    114 H114      -77.7375   23.5642  -72.2495 H         1 UNK         0.0793 
    115 H115      -76.3071   24.5843  -72.1783 H         1 UNK         0.0793 
    116 H116      -77.8775   25.3003  -72.5104 H         1 UNK         0.0793 
    117 H117      -79.1398   24.0957  -74.3243 H         1 UNK         0.3047 
    118 H118      -79.7501   23.7403  -77.8464 H         1 UNK         0.0822 
    119 H119      -81.5222   22.2659  -76.9316 H         1 UNK         0.0807 
    120 H120      -80.6923   22.1793  -75.3787 H         1 UNK         0.0807 
    121 H121      -79.9603   21.4710  -76.8122 H         1 UNK         0.0807 
    122 H122      -81.4839   24.5380  -75.7410 H         1 UNK         0.2946 
    123 H123      -80.7700   28.0174  -75.7666 H         1 UNK         0.1144 
    124 H124      -83.1794   28.1827  -76.3746 H         1 UNK         0.0793 
    125 H125      -83.1530   26.5285  -76.9855 H         1 UNK         0.0793 
    126 H126      -82.1863   27.7691  -77.7627 H         1 UNK         0.0793 
    127 H127      -81.3199   27.2807  -73.7663 H         1 UNK         0.2896 
@<TRIPOS>BOND
     1    1    2 1    
     2    1   67 1    
     3    1   68 1    
     4    1   69 1    
     5    2    3 2    
     6    2    4 am   BACKBONE|DICT|INTERRES
     7    4    5 1    
     8    4   70 1    
     9    5    6 1    
    10    5   65 1    
    11    5   71 1    
    12    6    7 1    
    13    6   72 1    
    14    6   73 1    
    15    7    8 1    
    16    8    9 1    
    17    8   74 1    
    18    8   75 1    
    19    9   10 ar   
    20    9   14 ar   
    21   10   11 ar   
    22   10   76 1    
    23   11   12 ar   
    24   11   48 1    
    25   12   13 ar   
    26   12   77 1    
    27   13   14 ar   
    28   13   15 1    
    29   14   78 1    
    30   15   16 1    
    31   15   79 1    
    32   15   80 1    
    33   16   17 1    
    34   17   18 1    
    35   17   81 1    
    36   17   82 1    
    37   18   19 1    
    38   18   22 1    
    39   18   83 1    
    40   19   20 am   BACKBONE|DICT|INTERRES
    41   19   21 2    
    42   20   84 1    
    43   20   85 1    
    44   22   23 am   BACKBONE|DICT|INTERRES
    45   22   86 1    
    46   23   24 2    
    47   23   25 1    
    48   25   26 1    
    49   25   27 1    
    50   25   87 1    
    51   26   88 1    
    52   26   89 1    
    53   26   90 1    
    54   27   28 am   BACKBONE|DICT|INTERRES
    55   27   91 1    
    56   28   29 2    
    57   28   30 1    
    58   30   31 1    
    59   30   32 1    
    60   30   92 1    
    61   31   93 1    
    62   31   94 1    
    63   31   95 1    
    64   32   33 am   BACKBONE|DICT|INTERRES
    65   32   96 1    
    66   33   34 2    
    67   33   35 1    
    68   35   36 1    
    69   35   37 1    
    70   35   97 1    
    71   36   98 1    
    72   36   99 1    
    73   36  100 1    
    74   37   38 am   BACKBONE|DICT|INTERRES
    75   37  101 1    
    76   38   39 2    
    77   38   40 1    
    78   40   41 1    
    79   40   42 1    
    80   40  102 1    
    81   41  103 1    
    82   41  104 1    
    83   41  105 1    
    84   42   43 am   BACKBONE|DICT|INTERRES
    85   42  106 1    
    86   43   44 2    
    87   43   45 1    
    88   45   46 1    
    89   45   49 1    
    90   45  107 1    
    91   46   47 1    
    92   46  108 1    
    93   46  109 1    
    94   47   48 1    
    95   48  110 1    
    96   48  111 1    
    97   49   50 am   BACKBONE|DICT|INTERRES
    98   49  112 1    
    99   50   51 2    
   100   50   52 1    
   101   52   53 1    
   102   52   54 1    
   103   52  113 1    
   104   53  114 1    
   105   53  115 1    
   106   53  116 1    
   107   54   55 am   BACKBONE|DICT|INTERRES
   108   54  117 1    
   109   55   56 2    
   110   55   57 1    
   111   57   58 1    
   112   57   59 1    
   113   57  118 1    
   114   58  119 1    
   115   58  120 1    
   116   58  121 1    
   117   59   60 am   BACKBONE|DICT|INTERRES
   118   59  122 1    
   119   60   61 2    
   120   60   62 1    
   121   62   63 1    
   122   62   64 1    
   123   62  123 1    
   124   63  124 1    
   125   63  125 1    
   126   63  126 1    
   127   64   65 am   BACKBONE|DICT|INTERRES
   128   64  127 1    
   129   65   66 2    
@<TRIPOS>SUBSTRUCTURE
     1 UNK         1 GROUP             0       ****    0 ROOT    
