@<TRIPOS>MOLECULE
3R135
127   129    1
SMALL
USER_CHARGES


@<TRIPOS>ATOM
      1 CA        -85.1945   25.5425  -71.3409 C.3       0 UNK        -0.1998 
      2 C         -84.4439   26.2464  -72.4616 C.2       0 UNK         0.4909 
      3 O         -85.0487   26.6039  -73.4735 O.2       0 UNK        -0.5240 
      4 N         -83.1339   26.4571  -72.2845 N.am      1 UNK        -0.4739 
      5 CA        -82.2429   27.0702  -73.2762 C.3       1 UNK         0.0864 
      6 C6        -80.8972   27.5051  -72.6482 C.3       11 UNK        -0.0881 
      7 S7        -81.1244   28.7765  -71.3574 S.3       11 UNK        -0.2682 
      8 C8        -79.9178   30.0521  -71.8669 C.3       11 UNK         0.0289 
      9 C9        -78.4656   29.5740  -71.8979 C.ar      11 UNK        -0.0687 
     10 C10       -77.9919   28.6068  -71.0042 C.ar      11 UNK        -0.0823 
     11 C11       -76.6696   28.1607  -71.0658 C.ar      11 UNK        -0.0830 
     12 C12       -75.7998   28.7150  -72.0089 C.ar      11 UNK        -0.1021 
     13 C13       -76.2484   29.7050  -72.8886 C.ar      11 UNK        -0.0753 
     14 C14       -77.5815   30.1239  -72.8314 C.ar      11 UNK        -0.0933 
     15 C15       -75.3083   30.3090  -73.9208 C.3       11 UNK         0.0166 
     16 S16       -74.5244   31.8364  -73.3172 S.3       11 UNK        -0.2615 
     17 C17       -73.0932   31.1847  -72.3884 C.3       11 UNK        -0.0865 
     18 CA        -71.7690   31.3056  -73.1863 C.3       10 UNK         0.0862 
     19 C         -70.5621   30.8684  -72.3154 C.2       10 UNK         0.5551 
     20 N         -69.7863   31.8140  -71.8039 N.am      10 UNK        -0.7319 
     21 O         -70.3572   29.6833  -72.0619 O.2       10 UNK        -0.5018 
     22 N         -71.8290   30.5467  -74.4420 N.am      10 UNK        -0.4509 
     23 C         -70.9993   30.7005  -75.4799 C.2       10 UNK         0.4899 
     24 O         -70.1031   31.5452  -75.5240 O.2       10 UNK        -0.4839 
     25 CA        -71.2365   29.7524  -76.6728 C.3       9 UNK         0.0222 
     26 CB        -70.1006   29.7927  -77.7175 C.3       9 UNK        -0.1966 
     27 N         -71.5225   28.3734  -76.2550 N.am      9 UNK        -0.4218 
     28 C         -70.7127   27.5511  -75.5637 C.2       9 UNK         0.5020 
     29 O         -69.5713   27.8483  -75.2094 O.2       9 UNK        -0.5274 
     30 CA        -71.2585   26.1591  -75.1870 C.3       8 UNK         0.0270 
     31 CB        -71.6134   26.1178  -73.6908 C.3       8 UNK        -0.1976 
     32 N         -72.4273   25.7559  -75.9747 N.am      8 UNK        -0.4313 
     33 C         -72.3831   25.4140  -77.2729 C.2       8 UNK         0.5041 
     34 O         -71.3329   25.3006  -77.9062 O.2       8 UNK        -0.5577 
     35 CA        -73.7188   25.1837  -78.0102 C.3       7 UNK         0.0284 
     36 CB        -73.9547   23.6829  -78.2426 C.3       7 UNK        -0.1958 
     37 N         -74.8904   25.7522  -77.3382 N.am      7 UNK        -0.4454 
     38 C         -75.0861   27.0521  -77.0728 C.2       7 UNK         0.5089 
     39 O         -74.3082   27.9455  -77.4101 O.2       7 UNK        -0.5125 
     40 CA        -76.3153   27.4057  -76.2161 C.3       6 UNK         0.0408 
     41 CB        -77.4768   27.8674  -77.1076 C.3       6 UNK        -0.1791 
     42 N         -76.7585   26.3292  -75.3155 N.am      6 UNK        -0.4762 
     43 C         -75.9919   25.7947  -74.3477 C.2       6 UNK         0.5007 
     44 O         -74.8167   26.1244  -74.1829 O.2       6 UNK        -0.5032 
     45 CA        -76.5711   24.6707  -73.4652 C.3       5 UNK         0.0783 
     46 C46       -77.0681   25.1656  -72.0831 C.3       11 UNK        -0.0857 
     47 S47       -75.6727   25.5451  -70.9614 S.3       11 UNK        -0.2512 
     48 C48       -76.1982   27.0710  -70.1122 C.3       11 UNK         0.0225 
     49 N         -77.5796   23.8753  -74.1710 N.am      5 UNK        -0.4615 
     50 C         -77.6773   22.5414  -74.0674 C.2       4 UNK         0.5053 
     51 O         -76.9952   21.8661  -73.2957 O.2       4 UNK        -0.5105 
     52 CA        -78.6840   21.8168  -74.9832 C.3       4 UNK         0.0263 
     53 CB        -79.9877   21.5288  -74.2216 C.3       4 UNK        -0.1981 
     54 N         -79.0014   22.5464  -76.2117 N.am      4 UNK        -0.4224 
     55 C         -78.1234   22.9016  -77.1606 C.2       3 UNK         0.4895 
     56 O         -76.9452   22.5469  -77.1684 O.2       3 UNK        -0.5091 
     57 CA        -78.6202   23.8523  -78.2671 C.3       3 UNK         0.0250 
     58 CB        -78.7474   23.0995  -79.6013 C.3       3 UNK        -0.1996 
     59 N         -79.8846   24.5499  -77.9885 N.am      3 UNK        -0.4254 
     60 C         -80.1432   25.3442  -76.9390 C.2       2 UNK         0.5004 
     61 O         -79.3387   25.5371  -76.0217 O.2       2 UNK        -0.5226 
     62 CA        -81.5183   26.0422  -76.9335 C.3       2 UNK         0.0269 
     63 CB        -82.6703   25.0986  -77.3499 C.3       2 UNK        -0.1926 
     64 N         -81.8230   26.7004  -75.6558 N.am      2 UNK        -0.4687 
     65 C         -81.9964   26.1147  -74.4612 C.2       1 UNK         0.5165 
     66 O         -81.9439   24.8964  -74.2675 O.2       1 UNK        -0.5079 
     67 H67       -85.6330   24.6151  -71.7083 H         1 UNK         0.0900 
     68 H68       -84.5417   25.3002  -70.5025 H         1 UNK         0.0900 
     69 H69       -85.9991   26.1777  -70.9712 H         1 UNK         0.0900 
     70 H70       -82.6863   26.1356  -71.4385 H         1 UNK         0.2959 
     71 H71       -82.7444   27.9607  -73.6628 H         1 UNK         0.1079 
     72 H72       -80.2270   27.8950  -73.4175 H         1 UNK         0.0837 
     73 H73       -80.3808   26.6505  -72.2066 H         1 UNK         0.0837 
     74 H74       -80.2121   30.4292  -72.8476 H         1 UNK         0.0685 
     75 H75       -79.9898   30.8936  -71.1769 H         1 UNK         0.0685 
     76 H76       -78.6588   28.1830  -70.2667 H         1 UNK         0.1434 
     77 H77       -74.7802   28.3596  -72.0653 H         1 UNK         0.1329 
     78 H78       -77.9302   30.8831  -73.5184 H         1 UNK         0.1335 
     79 H79       -74.5478   29.5847  -74.2149 H         1 UNK         0.0680 
     80 H80       -75.8662   30.5463  -74.8279 H         1 UNK         0.0680 
     81 H81       -73.0241   31.7535  -71.4591 H         1 UNK         0.1032 
     82 H82       -73.2734   30.1515  -72.0897 H         1 UNK         0.1032 
     83 H83       -71.6373   32.3579  -73.4484 H         1 UNK         0.0461 
     84 H84       -69.0081   31.5477  -71.2211 H         1 UNK         0.3453 
     85 H85       -69.9533   32.7886  -72.0017 H         1 UNK         0.3453 
     86 H86       -72.5097   29.8053  -74.4802 H         1 UNK         0.2984 
     87 H87       -72.1428   30.1089  -77.1648 H         1 UNK         0.0554 
     88 H88       -70.3068   29.1243  -78.5534 H         1 UNK         0.0847 
     89 H89       -69.1411   29.5050  -77.2866 H         1 UNK         0.0847 
     90 H90       -69.9830   30.7964  -78.1275 H         1 UNK         0.0847 
     91 H91       -72.4396   28.0283  -76.5214 H         1 UNK         0.3141 
     92 H92       -70.4616   25.4345  -75.3675 H         1 UNK         0.0743 
     93 H93       -72.3674   26.8627  -73.4333 H         1 UNK         0.0784 
     94 H94       -71.9935   25.1396  -73.3960 H         1 UNK         0.0784 
     95 H95       -70.7356   26.3242  -73.0768 H         1 UNK         0.0784 
     96 H96       -73.3276   25.8232  -75.5078 H         1 UNK         0.3213 
     97 H97       -73.6323   25.6715  -78.9835 H         1 UNK         0.0855 
     98 H98       -74.0848   23.1444  -77.3029 H         1 UNK         0.0814 
     99 H99       -73.1109   23.2293  -78.7645 H         1 UNK         0.0814 
    100 H100      -74.8411   23.5092  -78.8532 H         1 UNK         0.0814 
    101 H101      -75.5737   25.0945  -76.9912 H         1 UNK         0.3105 
    102 H102      -76.0317   28.2455  -75.5843 H         1 UNK         0.0547 
    103 H103      -77.1843   28.7269  -77.7122 H         1 UNK         0.0837 
    104 H104      -77.7959   27.0832  -77.7938 H         1 UNK         0.0837 
    105 H105      -78.3389   28.1699  -76.5129 H         1 UNK         0.0837 
    106 H106      -77.7249   26.0297  -75.4328 H         1 UNK         0.3020 
    107 H107      -75.7158   24.0141  -73.2847 H         1 UNK         0.1245 
    108 H108      -77.6578   24.3871  -71.5968 H         1 UNK         0.0781 
    109 H109      -77.7405   26.0159  -72.1980 H         1 UNK         0.0781 
    110 H110      -75.3624   27.4514  -69.5234 H         1 UNK         0.0836 
    111 H111      -76.9813   26.8150  -69.3968 H         1 UNK         0.0836 
    112 H112      -78.1945   24.3639  -74.8130 H         1 UNK         0.3022 
    113 H113      -78.2344   20.8647  -75.2725 H         1 UNK         0.0747 
    114 H114      -80.6794   20.9400  -74.8245 H         1 UNK         0.0793 
    115 H115      -79.7912   20.9619  -73.3104 H         1 UNK         0.0793 
    116 H116      -80.4953   22.4496  -73.9297 H         1 UNK         0.0793 
    117 H117      -79.9416   22.9061  -76.2878 H         1 UNK         0.3047 
    118 H118      -77.8515   24.6186  -78.3841 H         1 UNK         0.0822 
    119 H119      -78.9811   23.7788  -80.4214 H         1 UNK         0.0807 
    120 H120      -79.5269   22.3376  -79.5615 H         1 UNK         0.0807 
    121 H121      -77.8137   22.5969  -79.8588 H         1 UNK         0.0807 
    122 H122      -80.6056   24.4438  -78.6876 H         1 UNK         0.2946 
    123 H123      -81.4536   26.8403  -77.6751 H         1 UNK         0.1144 
    124 H124      -83.6376   25.5921  -77.2536 H         1 UNK         0.0793 
    125 H125      -82.6989   24.1948  -76.7400 H         1 UNK         0.0793 
    126 H126      -82.5800   24.7877  -78.3911 H         1 UNK         0.0793 
    127 H127      -81.8490   27.7098  -75.6945 H         1 UNK         0.2896 
@<TRIPOS>BOND
     1    1    2 1    
     2    1   67 1    
     3    1   68 1    
     4    1   69 1    
     5    2    3 2    
     6    2    4 am   BACKBONE|DICT|INTERRES
     7    4    5 1    
     8    4   70 1    
     9    5    6 1    
    10    5   65 1    
    11    5   71 1    
    12    6    7 1    
    13    6   72 1    
    14    6   73 1    
    15    7    8 1    
    16    8    9 1    
    17    8   74 1    
    18    8   75 1    
    19    9   10 ar   
    20    9   14 ar   
    21   10   11 ar   
    22   10   76 1    
    23   11   12 ar   
    24   11   48 1    
    25   12   13 ar   
    26   12   77 1    
    27   13   14 ar   
    28   13   15 1    
    29   14   78 1    
    30   15   16 1    
    31   15   79 1    
    32   15   80 1    
    33   16   17 1    
    34   17   18 1    
    35   17   81 1    
    36   17   82 1    
    37   18   19 1    
    38   18   22 1    
    39   18   83 1    
    40   19   20 am   BACKBONE|DICT|INTERRES
    41   19   21 2    
    42   20   84 1    
    43   20   85 1    
    44   22   23 am   BACKBONE|DICT|INTERRES
    45   22   86 1    
    46   23   24 2    
    47   23   25 1    
    48   25   26 1    
    49   25   27 1    
    50   25   87 1    
    51   26   88 1    
    52   26   89 1    
    53   26   90 1    
    54   27   28 am   BACKBONE|DICT|INTERRES
    55   27   91 1    
    56   28   29 2    
    57   28   30 1    
    58   30   31 1    
    59   30   32 1    
    60   30   92 1    
    61   31   93 1    
    62   31   94 1    
    63   31   95 1    
    64   32   33 am   BACKBONE|DICT|INTERRES
    65   32   96 1    
    66   33   34 2    
    67   33   35 1    
    68   35   36 1    
    69   35   37 1    
    70   35   97 1    
    71   36   98 1    
    72   36   99 1    
    73   36  100 1    
    74   37   38 am   BACKBONE|DICT|INTERRES
    75   37  101 1    
    76   38   39 2    
    77   38   40 1    
    78   40   41 1    
    79   40   42 1    
    80   40  102 1    
    81   41  103 1    
    82   41  104 1    
    83   41  105 1    
    84   42   43 am   BACKBONE|DICT|INTERRES
    85   42  106 1    
    86   43   44 2    
    87   43   45 1    
    88   45   46 1    
    89   45   49 1    
    90   45  107 1    
    91   46   47 1    
    92   46  108 1    
    93   46  109 1    
    94   47   48 1    
    95   48  110 1    
    96   48  111 1    
    97   49   50 am   BACKBONE|DICT|INTERRES
    98   49  112 1    
    99   50   51 2    
   100   50   52 1    
   101   52   53 1    
   102   52   54 1    
   103   52  113 1    
   104   53  114 1    
   105   53  115 1    
   106   53  116 1    
   107   54   55 am   BACKBONE|DICT|INTERRES
   108   54  117 1    
   109   55   56 2    
   110   55   57 1    
   111   57   58 1    
   112   57   59 1    
   113   57  118 1    
   114   58  119 1    
   115   58  120 1    
   116   58  121 1    
   117   59   60 am   BACKBONE|DICT|INTERRES
   118   59  122 1    
   119   60   61 2    
   120   60   62 1    
   121   62   63 1    
   122   62   64 1    
   123   62  123 1    
   124   63  124 1    
   125   63  125 1    
   126   63  126 1    
   127   64   65 am   BACKBONE|DICT|INTERRES
   128   64  127 1    
   129   65   66 2    
@<TRIPOS>SUBSTRUCTURE
     1 UNK         1 GROUP             0       ****    0 ROOT    
