@<TRIPOS>MOLECULE
3R135
127   129    1
SMALL
USER_CHARGES


@<TRIPOS>ATOM
      1 CA        -82.8628   23.3717  -70.9806 C.3       0 UNK        -0.1998 
      2 C         -82.9518   24.4829  -72.0160 C.2       0 UNK         0.4909 
      3 O         -83.9979   24.6527  -72.6436 O.2       0 UNK        -0.5240 
      4 N         -81.8644   25.2451  -72.1925 N.am      1 UNK        -0.4739 
      5 CA        -81.7379   26.3022  -73.2013 C.3       1 UNK         0.0864 
      6 C6        -80.5064   27.1922  -72.9144 C.3       11 UNK        -0.0881 
      7 S7        -80.6256   28.8392  -73.6895 S.3       11 UNK        -0.2682 
      8 C8        -79.9129   29.9058  -72.3947 C.3       11 UNK         0.0289 
      9 C9        -78.4409   29.5950  -72.1638 C.ar      11 UNK        -0.0687 
     10 C10       -78.0516   28.7501  -71.1208 C.ar      11 UNK        -0.0823 
     11 C11       -76.7060   28.4198  -70.9364 C.ar      11 UNK        -0.0830 
     12 C12       -75.7410   28.9689  -71.7863 C.ar      11 UNK        -0.1021 
     13 C13       -76.1168   29.8318  -72.8208 C.ar      11 UNK        -0.0753 
     14 C14       -77.4679   30.1400  -73.0049 C.ar      11 UNK        -0.0933 
     15 C15       -75.0774   30.3995  -73.7730 C.3       11 UNK         0.0166 
     16 S16       -74.3582   31.9511  -73.1482 S.3       11 UNK        -0.2615 
     17 C17       -72.8640   31.3536  -72.2826 C.3       11 UNK        -0.0865 
     18 CA        -71.5945   31.4397  -73.1727 C.3       10 UNK         0.0862 
     19 C         -70.3079   31.0953  -72.3650 C.2       10 UNK         0.5551 
     20 N         -69.5105   30.1061  -72.7537 N.am      10 UNK        -0.7319 
     21 O         -70.0232   31.7485  -71.3644 O.2       10 UNK        -0.5018 
     22 N         -71.7567   30.6524  -74.4025 N.am      10 UNK        -0.4509 
     23 C         -71.1428   30.8803  -75.5679 C.2       10 UNK         0.4899 
     24 O         -70.3981   31.8391  -75.7770 O.2       10 UNK        -0.4839 
     25 CA        -71.4160   29.8479  -76.6823 C.3       9 UNK         0.0222 
     26 CB        -70.3027   29.8190  -77.7506 C.3       9 UNK        -0.1966 
     27 N         -71.6823   28.4921  -76.1750 N.am      9 UNK        -0.4218 
     28 C         -70.8649   27.7365  -75.4193 C.2       9 UNK         0.5020 
     29 O         -69.7650   28.1186  -75.0163 O.2       9 UNK        -0.5274 
     30 CA        -71.3580   26.3396  -74.9935 C.3       8 UNK         0.0270 
     31 CB        -71.6103   26.3061  -73.4763 C.3       8 UNK        -0.1976 
     32 N         -72.5687   25.9039  -75.6962 N.am      8 UNK        -0.4313 
     33 C         -72.6005   25.5176  -76.9819 C.2       8 UNK         0.5041 
     34 O         -71.5909   25.4097  -77.6790 O.2       8 UNK        -0.5577 
     35 CA        -73.9732   25.2271  -77.6202 C.3       7 UNK         0.0284 
     36 CB        -74.1472   23.7197  -77.8631 C.3       7 UNK        -0.1958 
     37 N         -75.1122   25.7323  -76.8477 N.am      7 UNK        -0.4454 
     38 C         -75.3897   27.0319  -76.6547 C.2       7 UNK         0.5089 
     39 O         -74.7118   27.9475  -77.1234 O.2       7 UNK        -0.5125 
     40 CA        -76.5812   27.3732  -75.7378 C.3       6 UNK         0.0408 
     41 CB        -77.8457   27.6216  -76.5700 C.3       6 UNK        -0.1791 
     42 N         -76.8686   26.3618  -74.7162 N.am      6 UNK        -0.4762 
     43 C         -75.9978   25.9203  -73.7950 C.2       6 UNK         0.5007 
     44 O         -74.8388   26.3277  -73.7124 O.2       6 UNK        -0.5032 
     45 CA        -76.4684   24.7628  -72.8838 C.3       5 UNK         0.0783 
     46 C46       -76.9877   25.2541  -71.5088 C.3       11 UNK        -0.0857 
     47 S47       -75.6451   25.8782  -70.4359 S.3       11 UNK        -0.2512 
     48 C48       -76.3040   27.4646  -69.8197 C.3       11 UNK         0.0225 
     49 N         -77.4453   23.8846  -73.5466 N.am      5 UNK        -0.4615 
     50 C         -77.1907   23.1568  -74.6438 C.2       4 UNK         0.5053 
     51 O         -76.1039   23.1634  -75.2201 O.2       4 UNK        -0.5105 
     52 CA        -78.3395   22.3129  -75.2157 C.3       4 UNK         0.0263 
     53 CB        -79.3338   21.8187  -74.1447 C.3       4 UNK        -0.1981 
     54 N         -79.0508   23.0851  -76.2356 N.am      4 UNK        -0.4224 
     55 C         -78.6841   23.1658  -77.5257 C.2       3 UNK         0.4895 
     56 O         -77.7273   22.5498  -77.9962 O.2       3 UNK        -0.5091 
     57 CA        -79.5195   24.0610  -78.4626 C.3       3 UNK         0.0250 
     58 CB        -79.7554   23.3951  -79.8318 C.3       3 UNK        -0.1996 
     59 N         -80.8148   24.4017  -77.8740 N.am      3 UNK        -0.4254 
     60 C         -81.2871   25.6397  -77.6851 C.2       2 UNK         0.5004 
     61 O         -80.7108   26.6641  -78.0511 O.2       2 UNK        -0.5226 
     62 CA        -82.6284   25.7646  -76.9366 C.3       2 UNK         0.0269 
     63 CB        -83.4776   24.4717  -76.9537 C.3       2 UNK        -0.1926 
     64 N         -82.4519   26.2312  -75.5548 N.am      2 UNK        -0.4687 
     65 C         -81.6717   25.6813  -74.6111 C.2       1 UNK         0.5165 
     66 O         -80.9174   24.7231  -74.8056 O.2       1 UNK        -0.5079 
     67 H67       -83.0139   22.4031  -71.4576 H         1 UNK         0.0900 
     68 H68       -81.8942   23.3561  -70.4800 H         1 UNK         0.0900 
     69 H69       -83.6346   23.5028  -70.2218 H         1 UNK         0.0900 
     70 H70       -81.0321   25.0443  -71.6584 H         1 UNK         0.2959 
     71 H71       -82.6376   26.9183  -73.1302 H         1 UNK         0.1079 
     72 H72       -79.5755   26.7140  -73.2250 H         1 UNK         0.0837 
     73 H73       -80.4240   27.3378  -71.8372 H         1 UNK         0.0837 
     74 H74       -80.0246   30.9487  -72.6951 H         1 UNK         0.0685 
     75 H75       -80.4827   29.7926  -71.4709 H         1 UNK         0.0685 
     76 H76       -78.8004   28.3322  -70.4624 H         1 UNK         0.1434 
     77 H77       -74.7020   28.7017  -71.6543 H         1 UNK         0.1329 
     78 H78       -77.7660   30.7919  -73.8146 H         1 UNK         0.1335 
     79 H79       -75.5349   30.6020  -74.7426 H         1 UNK         0.0680 
     80 H80       -74.3019   29.6567  -73.9612 H         1 UNK         0.0680 
     81 H81       -72.7419   31.9687  -71.3890 H         1 UNK         0.1032 
     82 H82       -73.0183   30.3356  -71.9232 H         1 UNK         0.1032 
     83 H83       -71.4794   32.4849  -73.4664 H         1 UNK         0.0461 
     84 H84       -69.7106   29.5605  -73.5844 H         1 UNK         0.3453 
     85 H85       -68.6820   29.9070  -72.2164 H         1 UNK         0.3453 
     86 H86       -72.3291   29.8271  -74.3261 H         1 UNK         0.2984 
     87 H87       -72.3355   30.1707  -77.1726 H         1 UNK         0.0554 
     88 H88       -70.1951   30.7916  -78.2322 H         1 UNK         0.0847 
     89 H89       -70.5237   29.0944  -78.5342 H         1 UNK         0.0847 
     90 H90       -69.3349   29.5616  -77.3191 H         1 UNK         0.0847 
     91 H91       -72.5799   28.1015  -76.4391 H         1 UNK         0.3141 
     92 H92       -70.5590   25.6306  -75.2201 H         1 UNK         0.0743 
     93 H93       -70.6938   26.5174  -72.9237 H         1 UNK         0.0784 
     94 H94       -72.3487   27.0486  -73.1717 H         1 UNK         0.0784 
     95 H95       -71.9652   25.3278  -73.1515 H         1 UNK         0.0784 
     96 H96       -73.4388   25.9667  -75.1752 H         1 UNK         0.3213 
     97 H97       -73.9867   25.7288  -78.5902 H         1 UNK         0.0855 
     98 H98       -74.0886   23.1519  -76.9342 H         1 UNK         0.0814 
     99 H99       -73.3673   23.3391  -78.5240 H         1 UNK         0.0814 
    100 H100      -75.1056   23.4978  -78.3327 H         1 UNK         0.0814 
    101 H101      -75.6790   25.0364  -76.3770 H         1 UNK         0.3105 
    102 H102      -76.3336   28.2971  -75.2168 H         1 UNK         0.0547 
    103 H103      -78.6769   27.9519  -75.9470 H         1 UNK         0.0837 
    104 H104      -77.6768   28.3973  -77.3180 H         1 UNK         0.0837 
    105 H105      -78.1597   26.7223  -77.0991 H         1 UNK         0.0837 
    106 H106      -77.7888   25.9483  -74.7339 H         1 UNK         0.3020 
    107 H107      -75.5841   24.1470  -72.7017 H         1 UNK         0.1245 
    108 H108      -77.4536   24.4262  -70.9720 H         1 UNK         0.0781 
    109 H109      -77.7704   26.0019  -71.6338 H         1 UNK         0.0781 
    110 H110      -75.5449   27.9426  -69.1991 H         1 UNK         0.0836 
    111 H111      -77.1489   27.2600  -69.1603 H         1 UNK         0.0836 
    112 H112      -78.3656   23.8304  -73.1363 H         1 UNK         0.3022 
    113 H113      -77.8919   21.4292  -75.6758 H         1 UNK         0.0747 
    114 H114      -80.0710   21.1453  -74.5824 H         1 UNK         0.0793 
    115 H115      -78.8185   21.2615  -73.3611 H         1 UNK         0.0793 
    116 H116      -79.8809   22.6306  -73.6664 H         1 UNK         0.0793 
    117 H117      -79.8118   23.6707  -75.8963 H         1 UNK         0.3047 
    118 H118      -78.9288   24.9649  -78.6239 H         1 UNK         0.0822 
    119 H119      -78.8117   23.1813  -80.3354 H         1 UNK         0.0807 
    120 H120      -80.3306   24.0438  -80.4928 H         1 UNK         0.0807 
    121 H121      -80.2955   22.4526  -79.7333 H         1 UNK         0.0807 
    122 H122      -81.3606   23.6276  -77.5215 H         1 UNK         0.2946 
    123 H123      -83.1941   26.5364  -77.4621 H         1 UNK         0.1144 
    124 H124      -84.4672   24.6535  -76.5337 H         1 UNK         0.0793 
    125 H125      -83.0242   23.6660  -76.3744 H         1 UNK         0.0793 
    126 H126      -83.6277   24.1097  -77.9720 H         1 UNK         0.0793 
    127 H127      -82.9907   27.0499  -75.3061 H         1 UNK         0.2896 
@<TRIPOS>BOND
     1    1    2 1    
     2    1   67 1    
     3    1   68 1    
     4    1   69 1    
     5    2    3 2    
     6    2    4 am   BACKBONE|DICT|INTERRES
     7    4    5 1    
     8    4   70 1    
     9    5    6 1    
    10    5   65 1    
    11    5   71 1    
    12    6    7 1    
    13    6   72 1    
    14    6   73 1    
    15    7    8 1    
    16    8    9 1    
    17    8   74 1    
    18    8   75 1    
    19    9   10 ar   
    20    9   14 ar   
    21   10   11 ar   
    22   10   76 1    
    23   11   12 ar   
    24   11   48 1    
    25   12   13 ar   
    26   12   77 1    
    27   13   14 ar   
    28   13   15 1    
    29   14   78 1    
    30   15   16 1    
    31   15   79 1    
    32   15   80 1    
    33   16   17 1    
    34   17   18 1    
    35   17   81 1    
    36   17   82 1    
    37   18   19 1    
    38   18   22 1    
    39   18   83 1    
    40   19   20 am   BACKBONE|DICT|INTERRES
    41   19   21 2    
    42   20   84 1    
    43   20   85 1    
    44   22   23 am   BACKBONE|DICT|INTERRES
    45   22   86 1    
    46   23   24 2    
    47   23   25 1    
    48   25   26 1    
    49   25   27 1    
    50   25   87 1    
    51   26   88 1    
    52   26   89 1    
    53   26   90 1    
    54   27   28 am   BACKBONE|DICT|INTERRES
    55   27   91 1    
    56   28   29 2    
    57   28   30 1    
    58   30   31 1    
    59   30   32 1    
    60   30   92 1    
    61   31   93 1    
    62   31   94 1    
    63   31   95 1    
    64   32   33 am   BACKBONE|DICT|INTERRES
    65   32   96 1    
    66   33   34 2    
    67   33   35 1    
    68   35   36 1    
    69   35   37 1    
    70   35   97 1    
    71   36   98 1    
    72   36   99 1    
    73   36  100 1    
    74   37   38 am   BACKBONE|DICT|INTERRES
    75   37  101 1    
    76   38   39 2    
    77   38   40 1    
    78   40   41 1    
    79   40   42 1    
    80   40  102 1    
    81   41  103 1    
    82   41  104 1    
    83   41  105 1    
    84   42   43 am   BACKBONE|DICT|INTERRES
    85   42  106 1    
    86   43   44 2    
    87   43   45 1    
    88   45   46 1    
    89   45   49 1    
    90   45  107 1    
    91   46   47 1    
    92   46  108 1    
    93   46  109 1    
    94   47   48 1    
    95   48  110 1    
    96   48  111 1    
    97   49   50 am   BACKBONE|DICT|INTERRES
    98   49  112 1    
    99   50   51 2    
   100   50   52 1    
   101   52   53 1    
   102   52   54 1    
   103   52  113 1    
   104   53  114 1    
   105   53  115 1    
   106   53  116 1    
   107   54   55 am   BACKBONE|DICT|INTERRES
   108   54  117 1    
   109   55   56 2    
   110   55   57 1    
   111   57   58 1    
   112   57   59 1    
   113   57  118 1    
   114   58  119 1    
   115   58  120 1    
   116   58  121 1    
   117   59   60 am   BACKBONE|DICT|INTERRES
   118   59  122 1    
   119   60   61 2    
   120   60   62 1    
   121   62   63 1    
   122   62   64 1    
   123   62  123 1    
   124   63  124 1    
   125   63  125 1    
   126   63  126 1    
   127   64   65 am   BACKBONE|DICT|INTERRES
   128   64  127 1    
   129   65   66 2    
@<TRIPOS>SUBSTRUCTURE
     1 UNK         1 GROUP             0       ****    0 ROOT    
