@<TRIPOS>MOLECULE
3R135
127   129    1
SMALL
USER_CHARGES


@<TRIPOS>ATOM
      1 CA        -75.9799   29.9876  -76.1606 C.3       0 UNK        -0.1998 
      2 C         -76.5504   28.6729  -75.6556 C.2       0 UNK         0.4909 
      3 O         -75.8764   27.6430  -75.7209 O.2       0 UNK        -0.5240 
      4 N         -77.7912   28.7151  -75.1546 N.am      1 UNK        -0.4739 
      5 CA        -78.5162   27.5875  -74.5629 C.3       1 UNK         0.0864 
      6 C6        -79.8354   28.0779  -73.9133 C.3       11 UNK        -0.0881 
      7 S7        -80.5722   26.8752  -72.7573 S.3       11 UNK        -0.2682 
      8 C8        -80.0127   27.5227  -71.1513 C.3       11 UNK         0.0289 
      9 C9        -78.5148   27.3367  -70.9574 C.ar      11 UNK        -0.0687 
     10 C10       -78.0133   26.0924  -70.5655 C.ar      11 UNK        -0.0823 
     11 C11       -76.6404   25.9052  -70.3686 C.ar      11 UNK        -0.0830 
     12 C12       -75.7718   26.9853  -70.5583 C.ar      11 UNK        -0.1021 
     13 C13       -76.2627   28.2413  -70.9296 C.ar      11 UNK        -0.0753 
     14 C14       -77.6347   28.4088  -71.1389 C.ar      11 UNK        -0.0933 
     15 C15       -75.3166   29.4299  -71.0224 C.3       11 UNK         0.0166 
     16 S16       -74.4485   29.5167  -72.6200 S.3       11 UNK        -0.2615 
     17 C17       -73.1488   30.7360  -72.2178 C.3       11 UNK        -0.0865 
     18 CA        -73.2561   32.0464  -73.0415 C.3       10 UNK         0.0862 
     19 C         -72.4439   33.1843  -72.3518 C.2       10 UNK         0.5551 
     20 N         -71.3140   33.6227  -72.8945 N.am      10 UNK        -0.7319 
     21 O         -72.8517   33.6768  -71.3028 O.2       10 UNK        -0.5018 
     22 N         -72.9088   31.8206  -74.4548 N.am      10 UNK        -0.4509 
     23 C         -73.1164   32.6837  -75.4553 C.2       10 UNK         0.4899 
     24 O         -73.7351   33.7403  -75.3272 O.2       10 UNK        -0.4839 
     25 CA        -72.5276   32.3282  -76.8353 C.3       9 UNK         0.0222 
     26 CB        -71.0273   32.6767  -76.8974 C.3       9 UNK        -0.1966 
     27 N         -72.7778   30.9539  -77.2980 N.am      9 UNK        -0.4218 
     28 C         -72.3596   29.7927  -76.7732 C.2       9 UNK         0.5020 
     29 O         -71.6544   29.7070  -75.7655 O.2       9 UNK        -0.5274 
     30 CA        -72.8366   28.5316  -77.5130 C.3       8 UNK         0.0270 
     31 CB        -71.8752   28.1432  -78.6546 C.3       8 UNK        -0.1976 
     32 N         -73.1126   27.4121  -76.6054 N.am      8 UNK        -0.4313 
     33 C         -72.2527   26.6038  -75.9660 C.2       8 UNK         0.5041 
     34 O         -71.0262   26.6439  -76.0767 O.2       8 UNK        -0.5577 
     35 CA        -72.8767   25.5277  -75.0601 C.3       7 UNK         0.0284 
     36 CB        -72.9833   26.0255  -73.6097 C.3       7 UNK        -0.1958 
     37 N         -74.1997   25.0932  -75.5104 N.am      7 UNK        -0.4454 
     38 C         -74.4439   24.3533  -76.6005 C.2       7 UNK         0.5089 
     39 O         -73.5701   23.9485  -77.3692 O.2       7 UNK        -0.5125 
     40 CA        -75.9245   23.9893  -76.8339 C.3       6 UNK         0.0408 
     41 CB        -76.1338   22.9651  -77.9675 C.3       6 UNK        -0.1791 
     42 N         -76.5865   23.5467  -75.5992 N.am      6 UNK        -0.4762 
     43 C         -76.2020   22.5419  -74.7956 C.2       6 UNK         0.5007 
     44 O         -75.2990   21.7478  -75.0628 O.2       6 UNK        -0.5032 
     45 CA        -76.9063   22.4365  -73.4313 C.3       5 UNK         0.0783 
     46 C46       -76.1416   23.2936  -72.3926 C.3       11 UNK        -0.0857 
     47 S47       -76.8203   23.1146  -70.7124 S.3       11 UNK        -0.2512 
     48 C48       -76.0879   24.5660  -69.8848 C.3       11 UNK         0.0225 
     49 N         -78.3313   22.7790  -73.4756 N.am      5 UNK        -0.4615 
     50 C         -79.2804   22.0716  -74.0989 C.2       4 UNK         0.5053 
     51 O         -79.0535   21.1001  -74.8201 O.2       4 UNK        -0.5105 
     52 CA        -80.7323   22.4897  -73.8375 C.3       4 UNK         0.0263 
     53 CB        -80.9745   23.0008  -72.4016 C.3       4 UNK        -0.1981 
     54 N         -81.1454   23.5038  -74.8041 N.am      4 UNK        -0.4224 
     55 C         -82.3595   23.5552  -75.3725 C.2       3 UNK         0.4895 
     56 O         -83.2465   22.7280  -75.1550 O.2       3 UNK        -0.5091 
     57 CA        -82.6743   24.7243  -76.3277 C.3       3 UNK         0.0250 
     58 CB        -83.6205   25.7275  -75.6461 C.3       3 UNK        -0.1996 
     59 N         -81.4924   25.4448  -76.7979 N.am      3 UNK        -0.4254 
     60 C         -80.6002   24.9807  -77.6828 C.2       2 UNK         0.5004 
     61 O         -80.7210   23.9121  -78.2814 O.2       2 UNK        -0.5226 
     62 CA        -79.3462   25.8447  -77.9217 C.3       2 UNK         0.0269 
     63 CB        -79.4697   26.6247  -79.2400 C.3       2 UNK        -0.1926 
     64 N         -79.0375   26.7861  -76.8344 N.am      2 UNK        -0.4687 
     65 C         -78.7768   26.4441  -75.5631 C.2       1 UNK         0.5165 
     66 O         -78.7584   25.2784  -75.1680 O.2       1 UNK        -0.5079 
     67 H67       -75.7620   29.9220  -77.2252 H         1 UNK         0.0900 
     68 H68       -75.0614   30.2163  -75.6237 H         1 UNK         0.0900 
     69 H69       -76.6689   30.8180  -76.0080 H         1 UNK         0.0900 
     70 H70       -78.2784   29.5998  -75.1413 H         1 UNK         0.2959 
     71 H71       -77.8718   27.1785  -73.7814 H         1 UNK         0.1079 
     72 H72       -79.6613   29.0073  -73.3691 H         1 UNK         0.0837 
     73 H73       -80.5775   28.3260  -74.6746 H         1 UNK         0.0837 
     74 H74       -80.2904   28.5739  -71.0602 H         1 UNK         0.0685 
     75 H75       -80.5482   26.9992  -70.3580 H         1 UNK         0.0685 
     76 H76       -78.6981   25.2710  -70.4050 H         1 UNK         0.1434 
     77 H77       -74.7112   26.8609  -70.3858 H         1 UNK         0.1329 
     78 H78       -78.0189   29.3794  -71.4210 H         1 UNK         0.1335 
     79 H79       -75.8578   30.3635  -70.8606 H         1 UNK         0.0680 
     80 H80       -74.5865   29.3564  -70.2148 H         1 UNK         0.0680 
     81 H81       -72.1757   30.2680  -72.3779 H         1 UNK         0.1032 
     82 H82       -73.1925   30.9514  -71.1485 H         1 UNK         0.1032 
     83 H83       -74.2981   32.3713  -73.0165 H         1 UNK         0.0461 
     84 H84       -70.9692   33.2187  -73.7498 H         1 UNK         0.3453 
     85 H85       -70.7999   34.3603  -72.4391 H         1 UNK         0.3453 
     86 H86       -72.3940   30.9696  -74.6725 H         1 UNK         0.2984 
     87 H87       -73.0347   32.9696  -77.5581 H         1 UNK         0.0554 
     88 H88       -70.8585   33.7216  -76.6334 H         1 UNK         0.0847 
     89 H89       -70.6284   32.5294  -77.9010 H         1 UNK         0.0847 
     90 H90       -70.4357   32.0697  -76.2115 H         1 UNK         0.0847 
     91 H91       -73.3586   30.8996  -78.1237 H         1 UNK         0.3141 
     92 H92       -73.8002   28.7585  -77.9700 H         1 UNK         0.0743 
     93 H93       -71.8316   28.9283  -79.4103 H         1 UNK         0.0784 
     94 H94       -70.8567   27.9889  -78.2970 H         1 UNK         0.0784 
     95 H95       -72.1987   27.2296  -79.1537 H         1 UNK         0.0784 
     96 H96       -74.0939   27.3077  -76.3535 H         1 UNK         0.3213 
     97 H97       -72.2129   24.6605  -75.0767 H         1 UNK         0.0855 
     98 H98       -72.0201   26.3869  -73.2468 H         1 UNK         0.0814 
     99 H99       -73.3062   25.2298  -72.9381 H         1 UNK         0.0814 
    100 H100      -73.6944   26.8466  -73.5215 H         1 UNK         0.0814 
    101 H101      -74.9923   25.4318  -74.9827 H         1 UNK         0.3105 
    102 H102      -76.4105   24.9192  -77.1287 H         1 UNK         0.0547 
    103 H103      -75.7393   23.3421  -78.9117 H         1 UNK         0.0837 
    104 H104      -75.6296   22.0212  -77.7587 H         1 UNK         0.0837 
    105 H105      -77.1922   22.7531  -78.1193 H         1 UNK         0.0837 
    106 H106      -77.3734   24.1194  -75.2963 H         1 UNK         0.3020 
    107 H107      -76.8366   21.3900  -73.1252 H         1 UNK         0.1245 
    108 H108      -76.1688   24.3479  -72.6764 H         1 UNK         0.0781 
    109 H109      -75.0873   23.0111  -72.3570 H         1 UNK         0.0781 
    110 H110      -75.0045   24.5269  -70.0102 H         1 UNK         0.0836 
    111 H111      -76.2753   24.4849  -68.8134 H         1 UNK         0.0836 
    112 H112      -78.6096   23.5744  -72.9205 H         1 UNK         0.3022 
    113 H113      -81.3309   21.5858  -73.9714 H         1 UNK         0.0747 
    114 H114      -80.6117   22.2845  -71.6631 H         1 UNK         0.0793 
    115 H115      -80.4774   23.9517  -72.2113 H         1 UNK         0.0793 
    116 H116      -82.0385   23.1454  -72.2138 H         1 UNK         0.0793 
    117 H117      -80.4429   24.1952  -75.0499 H         1 UNK         0.3047 
    118 H118      -83.1859   24.3046  -77.1966 H         1 UNK         0.0822 
    119 H119      -83.9129   26.5260  -76.3282 H         1 UNK         0.0807 
    120 H120      -83.1595   26.1845  -74.7691 H         1 UNK         0.0807 
    121 H121      -84.5367   25.2374  -75.3135 H         1 UNK         0.0807 
    122 H122      -81.3072   26.3383  -76.3673 H         1 UNK         0.2946 
    123 H123      -78.5091   25.1518  -78.0137 H         1 UNK         0.1144 
    124 H124      -78.5474   27.1568  -79.4744 H         1 UNK         0.0793 
    125 H125      -80.2801   27.3537  -79.2035 H         1 UNK         0.0793 
    126 H126      -79.6734   25.9523  -80.0748 H         1 UNK         0.0793 
    127 H127      -79.0173   27.7669  -77.0746 H         1 UNK         0.2896 
@<TRIPOS>BOND
     1    1    2 1    
     2    1   67 1    
     3    1   68 1    
     4    1   69 1    
     5    2    3 2    
     6    2    4 am   BACKBONE|DICT|INTERRES
     7    4    5 1    
     8    4   70 1    
     9    5    6 1    
    10    5   65 1    
    11    5   71 1    
    12    6    7 1    
    13    6   72 1    
    14    6   73 1    
    15    7    8 1    
    16    8    9 1    
    17    8   74 1    
    18    8   75 1    
    19    9   10 ar   
    20    9   14 ar   
    21   10   11 ar   
    22   10   76 1    
    23   11   12 ar   
    24   11   48 1    
    25   12   13 ar   
    26   12   77 1    
    27   13   14 ar   
    28   13   15 1    
    29   14   78 1    
    30   15   16 1    
    31   15   79 1    
    32   15   80 1    
    33   16   17 1    
    34   17   18 1    
    35   17   81 1    
    36   17   82 1    
    37   18   19 1    
    38   18   22 1    
    39   18   83 1    
    40   19   20 am   BACKBONE|DICT|INTERRES
    41   19   21 2    
    42   20   84 1    
    43   20   85 1    
    44   22   23 am   BACKBONE|DICT|INTERRES
    45   22   86 1    
    46   23   24 2    
    47   23   25 1    
    48   25   26 1    
    49   25   27 1    
    50   25   87 1    
    51   26   88 1    
    52   26   89 1    
    53   26   90 1    
    54   27   28 am   BACKBONE|DICT|INTERRES
    55   27   91 1    
    56   28   29 2    
    57   28   30 1    
    58   30   31 1    
    59   30   32 1    
    60   30   92 1    
    61   31   93 1    
    62   31   94 1    
    63   31   95 1    
    64   32   33 am   BACKBONE|DICT|INTERRES
    65   32   96 1    
    66   33   34 2    
    67   33   35 1    
    68   35   36 1    
    69   35   37 1    
    70   35   97 1    
    71   36   98 1    
    72   36   99 1    
    73   36  100 1    
    74   37   38 am   BACKBONE|DICT|INTERRES
    75   37  101 1    
    76   38   39 2    
    77   38   40 1    
    78   40   41 1    
    79   40   42 1    
    80   40  102 1    
    81   41  103 1    
    82   41  104 1    
    83   41  105 1    
    84   42   43 am   BACKBONE|DICT|INTERRES
    85   42  106 1    
    86   43   44 2    
    87   43   45 1    
    88   45   46 1    
    89   45   49 1    
    90   45  107 1    
    91   46   47 1    
    92   46  108 1    
    93   46  109 1    
    94   47   48 1    
    95   48  110 1    
    96   48  111 1    
    97   49   50 am   BACKBONE|DICT|INTERRES
    98   49  112 1    
    99   50   51 2    
   100   50   52 1    
   101   52   53 1    
   102   52   54 1    
   103   52  113 1    
   104   53  114 1    
   105   53  115 1    
   106   53  116 1    
   107   54   55 am   BACKBONE|DICT|INTERRES
   108   54  117 1    
   109   55   56 2    
   110   55   57 1    
   111   57   58 1    
   112   57   59 1    
   113   57  118 1    
   114   58  119 1    
   115   58  120 1    
   116   58  121 1    
   117   59   60 am   BACKBONE|DICT|INTERRES
   118   59  122 1    
   119   60   61 2    
   120   60   62 1    
   121   62   63 1    
   122   62   64 1    
   123   62  123 1    
   124   63  124 1    
   125   63  125 1    
   126   63  126 1    
   127   64   65 am   BACKBONE|DICT|INTERRES
   128   64  127 1    
   129   65   66 2    
@<TRIPOS>SUBSTRUCTURE
     1 UNK         1 GROUP             0       ****    0 ROOT    
