@<TRIPOS>MOLECULE
3R135
127   129    1
SMALL
USER_CHARGES


@<TRIPOS>ATOM
      1 CA        -80.8052   31.2560  -75.6597 C.3       0 UNK        -0.1998 
      2 C         -79.8614   30.0951  -75.3859 C.2       0 UNK         0.4909 
      3 O         -78.7333   30.0986  -75.8742 O.2       0 UNK        -0.5240 
      4 N         -80.3209   29.1004  -74.6148 N.am      1 UNK        -0.4739 
      5 CA        -79.5502   27.9195  -74.1936 C.3       1 UNK         0.0864 
      6 C6        -80.2837   27.1232  -73.0824 C.3       11 UNK        -0.0881 
      7 S7        -80.7469   28.1666  -71.6559 S.3       11 UNK        -0.2682 
      8 C8        -79.6227   27.5695  -70.3516 C.3       11 UNK         0.0289 
      9 C9        -78.1500   27.7077  -70.7188 C.ar      11 UNK        -0.0687 
     10 C10       -77.3056   26.5955  -70.6427 C.ar      11 UNK        -0.0823 
     11 C11       -75.9497   26.7101  -70.9622 C.ar      11 UNK        -0.0830 
     12 C12       -75.4423   27.9444  -71.3740 C.ar      11 UNK        -0.1021 
     13 C13       -76.2741   29.0638  -71.4525 C.ar      11 UNK        -0.0753 
     14 C14       -77.6245   28.9433  -71.1131 C.ar      11 UNK        -0.0933 
     15 C15       -75.7103   30.4004  -71.9017 C.3       11 UNK         0.0166 
     16 S16       -75.8877   30.6067  -73.6980 S.3       11 UNK        -0.2615 
     17 C17       -74.9206   32.1321  -73.9690 C.3       11 UNK        -0.0865 
     18 CA        -73.6691   31.9047  -74.8674 C.3       10 UNK         0.0862 
     19 C         -72.9327   33.2329  -75.2207 C.2       10 UNK         0.5551 
     20 N         -71.6175   33.2296  -75.4012 N.am      10 UNK        -0.7319 
     21 O         -73.5625   34.2783  -75.3644 O.2       10 UNK        -0.5018 
     22 N         -72.7936   30.8185  -74.3887 N.am      10 UNK        -0.4509 
     23 C         -72.1272   30.7853  -73.2248 C.2       10 UNK         0.4899 
     24 O         -72.1372   31.7077  -72.4091 O.2       10 UNK        -0.4839 
     25 CA        -71.3238   29.5102  -72.9022 C.3       9 UNK         0.0222 
     26 CB        -71.4026   29.1425  -71.4085 C.3       9 UNK        -0.1966 
     27 N         -71.7755   28.3698  -73.7056 N.am      9 UNK        -0.4218 
     28 C         -71.0385   27.7325  -74.6242 C.2       9 UNK         0.5020 
     29 O         -69.8495   27.9730  -74.8400 O.2       9 UNK        -0.5274 
     30 CA        -71.7425   26.6508  -75.4666 C.3       8 UNK         0.0270 
     31 CB        -71.4516   25.2556  -74.8919 C.3       8 UNK        -0.1976 
     32 N         -73.1937   26.8233  -75.6323 N.am      8 UNK        -0.4313 
     33 C         -73.7839   27.8909  -76.1942 C.2       8 UNK         0.5041 
     34 O         -73.1614   28.8957  -76.5438 O.2       8 UNK        -0.5577 
     35 CA        -75.3145   27.8393  -76.3841 C.3       7 UNK         0.0284 
     36 CB        -75.8218   28.8672  -77.4158 C.3       7 UNK        -0.1958 
     37 N         -75.8294   26.5038  -76.7017 N.am      7 UNK        -0.4454 
     38 C         -75.4867   25.7052  -77.7247 C.2       7 UNK         0.5089 
     39 O         -74.6745   26.0119  -78.5986 O.2       7 UNK        -0.5125 
     40 CA        -76.1710   24.3210  -77.7601 C.3       6 UNK         0.0408 
     41 CB        -75.3895   23.2874  -78.5985 C.3       6 UNK        -0.1791 
     42 N         -76.4677   23.7920  -76.4197 N.am      6 UNK        -0.4762 
     43 C         -75.5746   23.5360  -75.4492 C.2       6 UNK         0.5007 
     44 O         -74.3595   23.6644  -75.5969 O.2       6 UNK        -0.5032 
     45 CA        -76.1204   23.0824  -74.0791 C.3       5 UNK         0.0783 
     46 C46       -76.2195   24.2616  -73.0803 C.3       11 UNK        -0.0857 
     47 S47       -74.5944   24.8430  -72.4902 S.3       11 UNK        -0.2512 
     48 C48       -75.0261   25.5062  -70.8539 C.3       11 UNK         0.0225 
     49 N         -77.4059   22.3894  -74.1936 N.am      5 UNK        -0.4615 
     50 C         -77.5669   21.1307  -74.6131 C.2       4 UNK         0.5053 
     51 O         -76.6371   20.4116  -74.9788 O.2       4 UNK        -0.5105 
     52 CA        -78.9987   20.5628  -74.6107 C.3       4 UNK         0.0263 
     53 CB        -79.4489   20.2094  -73.1791 C.3       4 UNK        -0.1981 
     54 N         -80.0030   21.3885  -75.2992 N.am      4 UNK        -0.4224 
     55 C         -80.4477   22.6133  -74.9854 C.2       3 UNK         0.4895 
     56 O         -80.0378   23.2847  -74.0353 O.2       3 UNK        -0.5091 
     57 CA        -81.5502   23.1879  -75.8874 C.3       3 UNK         0.0250 
     58 CB        -82.8732   23.3155  -75.1146 C.3       3 UNK        -0.1996 
     59 N         -81.1582   24.5002  -76.3949 N.am      3 UNK        -0.4254 
     60 C         -80.2216   24.7035  -77.3312 C.2       2 UNK         0.5004 
     61 O         -79.6550   23.7960  -77.9393 O.2       2 UNK        -0.5226 
     62 CA        -79.8390   26.1648  -77.6242 C.3       2 UNK         0.0269 
     63 CB        -80.6810   26.7257  -78.7806 C.3       2 UNK        -0.1926 
     64 N         -79.9804   27.0339  -76.4534 N.am      2 UNK        -0.4687 
     65 C         -79.2016   26.9741  -75.3625 C.2       1 UNK         0.5165 
     66 O         -78.2506   26.1992  -75.2550 O.2       1 UNK        -0.5079 
     67 H67       -80.3656   32.1869  -75.3025 H         1 UNK         0.0900 
     68 H68       -81.7682   31.1247  -75.1666 H         1 UNK         0.0900 
     69 H69       -80.9817   31.3513  -76.7307 H         1 UNK         0.0900 
     70 H70       -81.2495   29.1678  -74.2223 H         1 UNK         0.2959 
     71 H71       -78.5992   28.2762  -73.7906 H         1 UNK         0.1079 
     72 H72       -81.1983   26.6730  -73.4732 H         1 UNK         0.0837 
     73 H73       -79.6670   26.2900  -72.7378 H         1 UNK         0.0837 
     74 H74       -79.8114   28.1366  -69.4392 H         1 UNK         0.0685 
     75 H75       -79.8730   26.5316  -70.1260 H         1 UNK         0.0685 
     76 H76       -77.7023   25.6397  -70.3285 H         1 UNK         0.1434 
     77 H77       -74.3988   28.0287  -71.6378 H         1 UNK         0.1329 
     78 H78       -78.2718   29.8077  -71.1720 H         1 UNK         0.1335 
     79 H79       -76.2224   31.2174  -71.3910 H         1 UNK         0.0680 
     80 H80       -74.6580   30.4727  -71.6241 H         1 UNK         0.0680 
     81 H81       -74.6302   32.5698  -73.0126 H         1 UNK         0.1032 
     82 H82       -75.5913   32.8569  -74.4337 H         1 UNK         0.1032 
     83 H83       -74.0407   31.5489  -75.8289 H         1 UNK         0.0461 
     84 H84       -71.1471   34.0885  -75.6395 H         1 UNK         0.3453 
     85 H85       -71.0935   32.3755  -75.2990 H         1 UNK         0.3453 
     86 H86       -72.7112   30.0372  -75.0336 H         1 UNK         0.2984 
     87 H87       -70.2822   29.7440  -73.1297 H         1 UNK         0.0554 
     88 H88       -70.8623   28.2196  -71.1972 H         1 UNK         0.0847 
     89 H89       -72.4307   29.0152  -71.0724 H         1 UNK         0.0847 
     90 H90       -70.9567   29.9230  -70.7906 H         1 UNK         0.0847 
     91 H91       -72.7464   28.1069  -73.6143 H         1 UNK         0.3141 
     92 H92       -71.3047   26.6989  -76.4658 H         1 UNK         0.0743 
     93 H93       -71.9233   25.1124  -73.9195 H         1 UNK         0.0784 
     94 H94       -71.8078   24.4702  -75.5583 H         1 UNK         0.0784 
     95 H95       -70.3798   25.1003  -74.7603 H         1 UNK         0.0784 
     96 H96       -73.7686   26.0230  -75.3993 H         1 UNK         0.3213 
     97 H97       -75.7480   28.1034  -75.4184 H         1 UNK         0.0855 
     98 H98       -75.5844   29.8841  -77.1013 H         1 UNK         0.0814 
     99 H99       -76.9045   28.8126  -77.5288 H         1 UNK         0.0814 
    100 H100      -75.3711   28.7124  -78.3965 H         1 UNK         0.0814 
    101 H101      -76.5574   26.1672  -76.0741 H         1 UNK         0.3105 
    102 H102      -77.1301   24.4735  -78.2523 H         1 UNK         0.0547 
    103 H103      -75.2982   23.6142  -79.6349 H         1 UNK         0.0837 
    104 H104      -74.3793   23.1348  -78.2178 H         1 UNK         0.0837 
    105 H105      -75.8947   22.3218  -78.6083 H         1 UNK         0.0837 
    106 H106      -77.4478   23.6783  -76.1984 H         1 UNK         0.3020 
    107 H107      -75.4004   22.3640  -73.6794 H         1 UNK         0.1245 
    108 H108      -76.7952   23.9465  -72.2086 H         1 UNK         0.0781 
    109 H109      -76.7634   25.1052  -73.5051 H         1 UNK         0.0781 
    110 H110      -74.1096   25.7988  -70.3393 H         1 UNK         0.0836 
    111 H111      -75.4764   24.7189  -70.2472 H         1 UNK         0.0836 
    112 H112      -78.2445   22.9100  -73.9427 H         1 UNK         0.3022 
    113 H113      -78.9584   19.6285  -75.1735 H         1 UNK         0.0747 
    114 H114      -80.4206   19.7157  -73.1805 H         1 UNK         0.0793 
    115 H115      -78.7406   19.5281  -72.7057 H         1 UNK         0.0793 
    116 H116      -79.5232   21.0914  -72.5421 H         1 UNK         0.0793 
    117 H117      -80.3911   20.9602  -76.1289 H         1 UNK         0.3047 
    118 H118      -81.7116   22.5213  -76.7377 H         1 UNK         0.0822 
    119 H119      -83.6703   23.6987  -75.7520 H         1 UNK         0.0807 
    120 H120      -82.7787   23.9830  -74.2567 H         1 UNK         0.0807 
    121 H121      -83.1988   22.3452  -74.7373 H         1 UNK         0.0807 
    122 H122      -81.5456   25.3043  -75.9251 H         1 UNK         0.2946 
    123 H123      -78.7907   26.1779  -77.9285 H         1 UNK         0.1144 
    124 H124      -80.5731   26.1103  -79.6750 H         1 UNK         0.0793 
    125 H125      -80.3678   27.7360  -79.0450 H         1 UNK         0.0793 
    126 H126      -81.7425   26.7563  -78.5319 H         1 UNK         0.0793 
    127 H127      -80.7246   27.7163  -76.4695 H         1 UNK         0.2896 
@<TRIPOS>BOND
     1    1    2 1    
     2    1   67 1    
     3    1   68 1    
     4    1   69 1    
     5    2    3 2    
     6    2    4 am   BACKBONE|DICT|INTERRES
     7    4    5 1    
     8    4   70 1    
     9    5    6 1    
    10    5   65 1    
    11    5   71 1    
    12    6    7 1    
    13    6   72 1    
    14    6   73 1    
    15    7    8 1    
    16    8    9 1    
    17    8   74 1    
    18    8   75 1    
    19    9   10 ar   
    20    9   14 ar   
    21   10   11 ar   
    22   10   76 1    
    23   11   12 ar   
    24   11   48 1    
    25   12   13 ar   
    26   12   77 1    
    27   13   14 ar   
    28   13   15 1    
    29   14   78 1    
    30   15   16 1    
    31   15   79 1    
    32   15   80 1    
    33   16   17 1    
    34   17   18 1    
    35   17   81 1    
    36   17   82 1    
    37   18   19 1    
    38   18   22 1    
    39   18   83 1    
    40   19   20 am   BACKBONE|DICT|INTERRES
    41   19   21 2    
    42   20   84 1    
    43   20   85 1    
    44   22   23 am   BACKBONE|DICT|INTERRES
    45   22   86 1    
    46   23   24 2    
    47   23   25 1    
    48   25   26 1    
    49   25   27 1    
    50   25   87 1    
    51   26   88 1    
    52   26   89 1    
    53   26   90 1    
    54   27   28 am   BACKBONE|DICT|INTERRES
    55   27   91 1    
    56   28   29 2    
    57   28   30 1    
    58   30   31 1    
    59   30   32 1    
    60   30   92 1    
    61   31   93 1    
    62   31   94 1    
    63   31   95 1    
    64   32   33 am   BACKBONE|DICT|INTERRES
    65   32   96 1    
    66   33   34 2    
    67   33   35 1    
    68   35   36 1    
    69   35   37 1    
    70   35   97 1    
    71   36   98 1    
    72   36   99 1    
    73   36  100 1    
    74   37   38 am   BACKBONE|DICT|INTERRES
    75   37  101 1    
    76   38   39 2    
    77   38   40 1    
    78   40   41 1    
    79   40   42 1    
    80   40  102 1    
    81   41  103 1    
    82   41  104 1    
    83   41  105 1    
    84   42   43 am   BACKBONE|DICT|INTERRES
    85   42  106 1    
    86   43   44 2    
    87   43   45 1    
    88   45   46 1    
    89   45   49 1    
    90   45  107 1    
    91   46   47 1    
    92   46  108 1    
    93   46  109 1    
    94   47   48 1    
    95   48  110 1    
    96   48  111 1    
    97   49   50 am   BACKBONE|DICT|INTERRES
    98   49  112 1    
    99   50   51 2    
   100   50   52 1    
   101   52   53 1    
   102   52   54 1    
   103   52  113 1    
   104   53  114 1    
   105   53  115 1    
   106   53  116 1    
   107   54   55 am   BACKBONE|DICT|INTERRES
   108   54  117 1    
   109   55   56 2    
   110   55   57 1    
   111   57   58 1    
   112   57   59 1    
   113   57  118 1    
   114   58  119 1    
   115   58  120 1    
   116   58  121 1    
   117   59   60 am   BACKBONE|DICT|INTERRES
   118   59  122 1    
   119   60   61 2    
   120   60   62 1    
   121   62   63 1    
   122   62   64 1    
   123   62  123 1    
   124   63  124 1    
   125   63  125 1    
   126   63  126 1    
   127   64   65 am   BACKBONE|DICT|INTERRES
   128   64  127 1    
   129   65   66 2    
@<TRIPOS>SUBSTRUCTURE
     1 UNK         1 GROUP             0       ****    0 ROOT    
