@<TRIPOS>MOLECULE
3R135
127   129    1
SMALL
USER_CHARGES


@<TRIPOS>ATOM
      1 CA        -83.9416   25.2731  -70.2493 C.3       0 UNK        -0.1998 
      2 C         -83.7615   24.3807  -71.4742 C.2       0 UNK         0.4909 
      3 O         -84.6084   23.5265  -71.7292 O.2       0 UNK        -0.5240 
      4 N         -82.6895   24.5333  -72.2613 N.am      1 UNK        -0.4739 
      5 CA        -81.6141   25.5133  -72.1066 C.3       1 UNK         0.0864 
      6 C6        -80.4735   24.9909  -71.1889 C.3       11 UNK        -0.0881 
      7 S7        -79.4924   26.3511  -70.4682 S.3       11 UNK        -0.2682 
      8 C8        -77.9127   26.1961  -71.3620 C.3       11 UNK         0.0289 
      9 C9        -77.3448   27.5629  -71.7038 C.ar      11 UNK        -0.0687 
     10 C10       -77.8501   28.2707  -72.7976 C.ar      11 UNK        -0.0823 
     11 C11       -77.3288   29.5220  -73.1373 C.ar      11 UNK        -0.0830 
     12 C12       -76.2902   30.0636  -72.3732 C.ar      11 UNK        -0.1021 
     13 C13       -75.7871   29.3712  -71.2671 C.ar      11 UNK        -0.0753 
     14 C14       -76.3179   28.1203  -70.9369 C.ar      11 UNK        -0.0933 
     15 C15       -74.6809   29.9788  -70.4192 C.3       11 UNK         0.0166 
     16 S16       -73.0673   29.2565  -70.8427 S.3       11 UNK        -0.2615 
     17 C17       -72.0387   30.7448  -71.0793 C.3       11 UNK        -0.0865 
     18 CA        -72.0991   31.3114  -72.5230 C.3       10 UNK         0.0862 
     19 C         -71.2451   32.6090  -72.6308 C.2       10 UNK         0.5551 
     20 N         -70.1511   32.6268  -73.3825 N.am      10 UNK        -0.7319 
     21 O         -71.5854   33.6180  -72.0180 O.2       10 UNK        -0.5018 
     22 N         -71.8027   30.2778  -73.5293 N.am      10 UNK        -0.4509 
     23 C         -72.0426   30.3721  -74.8415 C.2       10 UNK         0.4899 
     24 O         -72.5265   31.3684  -75.3790 O.2       10 UNK        -0.4839 
     25 CA        -71.6963   29.1489  -75.7091 C.3       9 UNK         0.0222 
     26 CB        -70.1850   29.0714  -76.0012 C.3       9 UNK        -0.1966 
     27 N         -72.2238   27.8767  -75.1965 N.am      9 UNK        -0.4218 
     28 C         -71.8733   27.1947  -74.0952 C.2       9 UNK         0.5020 
     29 O         -70.9899   27.5540  -73.3149 O.2       9 UNK        -0.5274 
     30 CA        -72.6415   25.8931  -73.8052 C.3       8 UNK         0.0270 
     31 CB        -73.9224   26.1853  -73.0061 C.3       8 UNK        -0.1976 
     32 N         -72.9856   25.1326  -75.0089 N.am      8 UNK        -0.4313 
     33 C         -72.1021   24.5152  -75.8068 C.2       8 UNK         0.5041 
     34 O         -70.8835   24.5359  -75.6298 O.2       8 UNK        -0.5577 
     35 CA        -72.6735   23.7334  -76.9993 C.3       7 UNK         0.0284 
     36 CB        -73.2057   22.3627  -76.5475 C.3       7 UNK        -0.1958 
     37 N         -73.7435   24.4815  -77.6593 N.am      7 UNK        -0.4454 
     38 C         -73.5566   25.3292  -78.6803 C.2       7 UNK         0.5089 
     39 O         -72.4697   25.5130  -79.2291 O.2       7 UNK        -0.5125 
     40 CA        -74.7871   26.1128  -79.1796 C.3       6 UNK         0.0408 
     41 CB        -75.4386   25.3858  -80.3664 C.3       6 UNK        -0.1791 
     42 N         -75.8007   26.3529  -78.1479 N.am      6 UNK        -0.4762 
     43 C         -75.6080   27.0862  -77.0412 C.2       6 UNK         0.5007 
     44 O         -74.5486   27.6525  -76.7773 O.2       6 UNK        -0.5032 
     45 CA        -76.7664   27.1283  -76.0225 C.3       5 UNK         0.0783 
     46 C46       -77.7396   28.2969  -76.3094 C.3       11 UNK        -0.0857 
     47 S47       -77.0465   29.9277  -75.8694 S.3       11 UNK        -0.2512 
     48 C48       -77.9053   30.3031  -74.3093 C.3       11 UNK         0.0225 
     49 N         -77.4801   25.8483  -75.9164 N.am      5 UNK        -0.4615 
     50 C         -76.9202   24.6706  -75.5999 C.2       4 UNK         0.5053 
     51 O         -75.7144   24.5335  -75.3936 O.2       4 UNK        -0.5105 
     52 CA        -77.8251   23.4306  -75.5201 C.3       4 UNK         0.0263 
     53 CB        -77.8468   22.8679  -74.0900 C.3       4 UNK        -0.1981 
     54 N         -79.1981   23.7085  -75.9459 N.am      4 UNK        -0.4224 
     55 C         -79.6822   23.4681  -77.1728 C.2       3 UNK         0.4895 
     56 O         -79.0208   22.9651  -78.0815 O.2       3 UNK        -0.5091 
     57 CA        -81.1503   23.8507  -77.4447 C.3       3 UNK         0.0250 
     58 CB        -82.0598   22.6210  -77.2893 C.3       3 UNK        -0.1996 
     59 N         -81.6535   24.9307  -76.5905 N.am      3 UNK        -0.4254 
     60 C         -81.2276   26.2004  -76.6371 C.2       2 UNK         0.5004 
     61 O         -80.3745   26.6073  -77.4251 O.2       2 UNK        -0.5226 
     62 CA        -81.8097   27.1676  -75.5906 C.3       2 UNK         0.0269 
     63 CB        -83.1025   27.8110  -76.1168 C.3       2 UNK        -0.1926 
     64 N         -82.0624   26.5747  -74.2683 N.am      2 UNK        -0.4687 
     65 C         -81.1551   25.9352  -73.5138 C.2       1 UNK         0.5165 
     66 O         -80.0295   25.6426  -73.9170 O.2       1 UNK        -0.5079 
     67 H67       -84.7278   24.8805  -69.6047 H         1 UNK         0.0900 
     68 H68       -84.2287   26.2804  -70.5495 H         1 UNK         0.0900 
     69 H69       -83.0302   25.3296  -69.6556 H         1 UNK         0.0900 
     70 H70       -82.5986   23.9316  -73.0683 H         1 UNK         0.2959 
     71 H71       -82.0243   26.4197  -71.6566 H         1 UNK         0.1079 
     72 H72       -80.8963   24.4415  -70.3470 H         1 UNK         0.0837 
     73 H73       -79.8361   24.2694  -71.7016 H         1 UNK         0.0837 
     74 H74       -77.2108   25.6249  -70.7526 H         1 UNK         0.0685 
     75 H75       -78.0392   25.6326  -72.2851 H         1 UNK         0.0685 
     76 H76       -78.6537   27.8435  -73.3804 H         1 UNK         0.1434 
     77 H77       -75.8810   31.0303  -72.6335 H         1 UNK         0.1329 
     78 H78       -75.9267   27.5806  -70.0853 H         1 UNK         0.1335 
     79 H79       -74.6623   31.0617  -70.5510 H         1 UNK         0.0680 
     80 H80       -74.8835   29.8039  -69.3616 H         1 UNK         0.0680 
     81 H81       -72.3350   31.5014  -70.3499 H         1 UNK         0.1032 
     82 H82       -71.0105   30.4781  -70.8275 H         1 UNK         0.1032 
     83 H83       -73.1299   31.6233  -72.7020 H         1 UNK         0.0461 
     84 H84       -69.8698   31.8026  -73.8882 H         1 UNK         0.3453 
     85 H85       -69.6068   33.4726  -73.4470 H         1 UNK         0.3453 
     86 H86       -71.4228   29.4007  -73.1830 H         1 UNK         0.2984 
     87 H87       -72.1997   29.2962  -76.6660 H         1 UNK         0.0554 
     88 H88       -69.9546   28.2423  -76.6704 H         1 UNK         0.0847 
     89 H89       -69.5955   28.9416  -75.0934 H         1 UNK         0.0847 
     90 H90       -69.8363   29.9848  -76.4847 H         1 UNK         0.0847 
     91 H91       -73.0184   27.5281  -75.7298 H         1 UNK         0.3141 
     92 H92       -71.9977   25.2596  -73.1914 H         1 UNK         0.0743 
     93 H93       -73.6818   26.6199  -72.0360 H         1 UNK         0.0784 
     94 H94       -74.5722   26.8913  -73.5231 H         1 UNK         0.0784 
     95 H95       -74.4955   25.2773  -72.8175 H         1 UNK         0.0784 
     96 H96       -73.9787   25.0048  -75.1972 H         1 UNK         0.3213 
     97 H97       -71.8590   23.5577  -77.7057 H         1 UNK         0.0855 
     98 H98       -74.0223   22.4553  -75.8307 H         1 UNK         0.0814 
     99 H99       -72.4180   21.7794  -76.0688 H         1 UNK         0.0814 
    100 H100      -73.5690   21.7811  -77.3948 H         1 UNK         0.0814 
    101 H101      -74.6602   24.4320  -77.2327 H         1 UNK         0.3105 
    102 H102      -74.4342   27.0858  -79.5279 H         1 UNK         0.0547 
    103 H103      -76.2527   25.9714  -80.7937 H         1 UNK         0.0837 
    104 H104      -74.7141   25.2133  -81.1636 H         1 UNK         0.0837 
    105 H105      -75.8393   24.4139  -80.0751 H         1 UNK         0.0837 
    106 H106      -76.6991   25.9090  -78.2765 H         1 UNK         0.3020 
    107 H107      -76.3137   27.2994  -75.0444 H         1 UNK         0.1245 
    108 H108      -78.6655   28.1573  -75.7522 H         1 UNK         0.0781 
    109 H109      -78.0360   28.3112  -77.3602 H         1 UNK         0.0781 
    110 H110      -77.8165   31.3730  -74.1145 H         1 UNK         0.0836 
    111 H111      -78.9739   30.1082  -74.4133 H         1 UNK         0.0836 
    112 H112      -78.4767   25.8754  -76.0811 H         1 UNK         0.3022 
    113 H113      -77.3806   22.6722  -76.1680 H         1 UNK         0.0747 
    114 H114      -78.4281   21.9474  -74.0366 H         1 UNK         0.0793 
    115 H115      -78.2778   23.5763  -73.3846 H         1 UNK         0.0793 
    116 H116      -76.8389   22.6342  -73.7437 H         1 UNK         0.0793 
    117 H117      -79.7808   24.1880  -75.2670 H         1 UNK         0.3047 
    118 H118      -81.2091   24.1904  -78.4811 H         1 UNK         0.0822 
    119 H119      -81.7299   21.8073  -77.9369 H         1 UNK         0.0807 
    120 H120      -83.0899   22.8511  -77.5623 H         1 UNK         0.0807 
    121 H121      -82.0583   22.2433  -76.2660 H         1 UNK         0.0807 
    122 H122      -82.3591   24.6886  -75.9104 H         1 UNK         0.2946 
    123 H123      -81.0731   27.9610  -75.4495 H         1 UNK         0.1144 
    124 H124      -82.9395   28.2767  -77.0901 H         1 UNK         0.0793 
    125 H125      -83.4607   28.5909  -75.4446 H         1 UNK         0.0793 
    126 H126      -83.9003   27.0769  -76.2362 H         1 UNK         0.0793 
    127 H127      -82.9808   26.7319  -73.8776 H         1 UNK         0.2896 
@<TRIPOS>BOND
     1    1    2 1    
     2    1   67 1    
     3    1   68 1    
     4    1   69 1    
     5    2    3 2    
     6    2    4 am   BACKBONE|DICT|INTERRES
     7    4    5 1    
     8    4   70 1    
     9    5    6 1    
    10    5   65 1    
    11    5   71 1    
    12    6    7 1    
    13    6   72 1    
    14    6   73 1    
    15    7    8 1    
    16    8    9 1    
    17    8   74 1    
    18    8   75 1    
    19    9   10 ar   
    20    9   14 ar   
    21   10   11 ar   
    22   10   76 1    
    23   11   12 ar   
    24   11   48 1    
    25   12   13 ar   
    26   12   77 1    
    27   13   14 ar   
    28   13   15 1    
    29   14   78 1    
    30   15   16 1    
    31   15   79 1    
    32   15   80 1    
    33   16   17 1    
    34   17   18 1    
    35   17   81 1    
    36   17   82 1    
    37   18   19 1    
    38   18   22 1    
    39   18   83 1    
    40   19   20 am   BACKBONE|DICT|INTERRES
    41   19   21 2    
    42   20   84 1    
    43   20   85 1    
    44   22   23 am   BACKBONE|DICT|INTERRES
    45   22   86 1    
    46   23   24 2    
    47   23   25 1    
    48   25   26 1    
    49   25   27 1    
    50   25   87 1    
    51   26   88 1    
    52   26   89 1    
    53   26   90 1    
    54   27   28 am   BACKBONE|DICT|INTERRES
    55   27   91 1    
    56   28   29 2    
    57   28   30 1    
    58   30   31 1    
    59   30   32 1    
    60   30   92 1    
    61   31   93 1    
    62   31   94 1    
    63   31   95 1    
    64   32   33 am   BACKBONE|DICT|INTERRES
    65   32   96 1    
    66   33   34 2    
    67   33   35 1    
    68   35   36 1    
    69   35   37 1    
    70   35   97 1    
    71   36   98 1    
    72   36   99 1    
    73   36  100 1    
    74   37   38 am   BACKBONE|DICT|INTERRES
    75   37  101 1    
    76   38   39 2    
    77   38   40 1    
    78   40   41 1    
    79   40   42 1    
    80   40  102 1    
    81   41  103 1    
    82   41  104 1    
    83   41  105 1    
    84   42   43 am   BACKBONE|DICT|INTERRES
    85   42  106 1    
    86   43   44 2    
    87   43   45 1    
    88   45   46 1    
    89   45   49 1    
    90   45  107 1    
    91   46   47 1    
    92   46  108 1    
    93   46  109 1    
    94   47   48 1    
    95   48  110 1    
    96   48  111 1    
    97   49   50 am   BACKBONE|DICT|INTERRES
    98   49  112 1    
    99   50   51 2    
   100   50   52 1    
   101   52   53 1    
   102   52   54 1    
   103   52  113 1    
   104   53  114 1    
   105   53  115 1    
   106   53  116 1    
   107   54   55 am   BACKBONE|DICT|INTERRES
   108   54  117 1    
   109   55   56 2    
   110   55   57 1    
   111   57   58 1    
   112   57   59 1    
   113   57  118 1    
   114   58  119 1    
   115   58  120 1    
   116   58  121 1    
   117   59   60 am   BACKBONE|DICT|INTERRES
   118   59  122 1    
   119   60   61 2    
   120   60   62 1    
   121   62   63 1    
   122   62   64 1    
   123   62  123 1    
   124   63  124 1    
   125   63  125 1    
   126   63  126 1    
   127   64   65 am   BACKBONE|DICT|INTERRES
   128   64  127 1    
   129   65   66 2    
@<TRIPOS>SUBSTRUCTURE
     1 UNK         1 GROUP             0       ****    0 ROOT    
