@<TRIPOS>MOLECULE
3R135
127   129    1
SMALL
USER_CHARGES


@<TRIPOS>ATOM
      1 CA        -77.8404   22.1768  -77.5336 C.3       0 UNK        -0.1998 
      2 C         -77.3818   21.9359  -76.1040 C.2       0 UNK         0.4909 
      3 O         -77.1865   20.7867  -75.7098 O.2       0 UNK        -0.5240 
      4 N         -77.2213   23.0118  -75.3237 N.am      1 UNK        -0.4739 
      5 CA        -76.7810   22.9822  -73.9203 C.3       1 UNK         0.0864 
      6 C6        -75.7054   24.0628  -73.6355 C.3       11 UNK        -0.0881 
      7 S7        -76.2315   25.7706  -74.0085 S.3       11 UNK        -0.2682 
      8 C8        -76.3700   26.4539  -72.3296 C.3       11 UNK         0.0289 
      9 C9        -76.8657   27.8873  -72.3806 C.ar      11 UNK        -0.0687 
     10 C10       -78.2355   28.1619  -72.3576 C.ar      11 UNK        -0.0823 
     11 C11       -78.6952   29.4767  -72.4815 C.ar      11 UNK        -0.0830 
     12 C12       -77.7712   30.5234  -72.5803 C.ar      11 UNK        -0.1021 
     13 C13       -76.3986   30.2602  -72.5807 C.ar      11 UNK        -0.0753 
     14 C14       -75.9536   28.9395  -72.4834 C.ar      11 UNK        -0.0933 
     15 C15       -75.3903   31.3896  -72.7256 C.3       11 UNK         0.0166 
     16 S16       -74.3889   31.5789  -71.2198 S.3       11 UNK        -0.2615 
     17 C17       -73.1252   32.7720  -71.7826 C.3       11 UNK        -0.0865 
     18 CA        -72.0451   32.1657  -72.7232 C.3       10 UNK         0.0862 
     19 C         -70.9631   33.2287  -73.0753 C.2       10 UNK         0.5551 
     20 N         -69.6987   33.0351  -72.7209 N.am      10 UNK        -0.7319 
     21 O         -71.2809   34.2478  -73.6833 O.2       10 UNK        -0.5018 
     22 N         -71.5274   30.8813  -72.2198 N.am      10 UNK        -0.4509 
     23 C         -70.9053   29.9576  -72.9629 C.2       10 UNK         0.4899 
     24 O         -70.6149   30.1197  -74.1501 O.2       10 UNK        -0.4839 
     25 CA        -70.5252   28.6304  -72.2688 C.3       9 UNK         0.0222 
     26 CB        -71.2607   28.3859  -70.9292 C.3       9 UNK        -0.1966 
     27 N         -70.6851   27.4756  -73.1638 N.am      9 UNK        -0.4218 
     28 C         -71.8222   27.0720  -73.7479 C.2       9 UNK         0.5020 
     29 O         -72.9241   27.5983  -73.5676 O.2       9 UNK        -0.5274 
     30 CA        -71.7184   25.8629  -74.6851 C.3       8 UNK         0.0270 
     31 CB        -71.7270   24.5430  -73.8948 C.3       8 UNK        -0.1976 
     32 N         -72.8756   25.9123  -75.5670 N.am      8 UNK        -0.4313 
     33 C         -72.9129   25.5888  -76.8630 C.2       8 UNK         0.5041 
     34 O         -71.9798   25.0578  -77.4666 O.2       8 UNK        -0.5577 
     35 CA        -74.2085   25.9346  -77.6212 C.3       7 UNK         0.0284 
     36 CB        -75.1113   24.6992  -77.7392 C.3       7 UNK        -0.1958 
     37 N         -74.9558   27.0193  -76.9763 N.am      7 UNK        -0.4454 
     38 C         -74.6176   28.3143  -77.0454 C.2       7 UNK         0.5089 
     39 O         -73.6935   28.7358  -77.7426 O.2       7 UNK        -0.5125 
     40 CA        -75.4125   29.2955  -76.1607 C.3       6 UNK         0.0408 
     41 CB        -75.4898   30.7145  -76.7606 C.3       6 UNK        -0.1791 
     42 N         -76.7455   28.8238  -75.7642 N.am      6 UNK        -0.4762 
     43 C         -77.7911   28.5517  -76.5594 C.2       6 UNK         0.5007 
     44 O         -77.7720   28.6353  -77.7896 O.2       6 UNK        -0.5032 
     45 CA        -79.0867   28.1576  -75.8299 C.3       5 UNK         0.0783 
     46 C46       -79.8665   29.4143  -75.3628 C.3       11 UNK        -0.0857 
     47 S47       -81.0009   28.9946  -73.9953 S.3       11 UNK        -0.2512 
     48 C48       -80.1900   29.7682  -72.5503 C.3       11 UNK         0.0225 
     49 N         -79.9269   27.2991  -76.6647 N.am      5 UNK        -0.4615 
     50 C         -79.7738   25.9800  -76.7983 C.2       4 UNK         0.5053 
     51 O         -78.8834   25.3175  -76.2555 O.2       4 UNK        -0.5105 
     52 CA        -80.8135   25.2687  -77.6680 C.3       4 UNK         0.0263 
     53 CB        -80.2902   25.0236  -79.0931 C.3       4 UNK        -0.1981 
     54 N         -81.1167   24.0051  -77.0119 N.am      4 UNK        -0.4224 
     55 C         -82.3126   23.4094  -76.9605 C.2       3 UNK         0.4895 
     56 O         -83.2969   23.7849  -77.5982 O.2       3 UNK        -0.5091 
     57 CA        -82.4383   22.1947  -76.0217 C.3       3 UNK         0.0250 
     58 CB        -82.2154   20.8887  -76.8019 C.3       3 UNK        -0.1996 
     59 N         -81.5173   22.2385  -74.8784 N.am      3 UNK        -0.4254 
     60 C         -81.6013   23.1060  -73.8555 C.2       2 UNK         0.5004 
     61 O         -82.4829   23.9572  -73.7444 O.2       2 UNK        -0.5226 
     62 CA        -80.4885   23.0273  -72.8037 C.3       2 UNK         0.0269 
     63 CB        -80.7040   21.8170  -71.8722 C.3       2 UNK        -0.1926 
     64 N         -79.1962   22.9659  -73.4853 N.am      2 UNK        -0.4687 
     65 C         -77.9763   23.0369  -72.9402 C.2       1 UNK         0.5165 
     66 O         -77.7733   23.1345  -71.7293 O.2       1 UNK        -0.5079 
     67 H67       -77.1665   21.6809  -78.2316 H         1 UNK         0.0900 
     68 H68       -78.8426   21.7777  -77.6848 H         1 UNK         0.0900 
     69 H69       -77.8522   23.2377  -77.7776 H         1 UNK         0.0900 
     70 H70       -77.4619   23.9345  -75.6770 H         1 UNK         0.2959 
     71 H71       -76.3046   22.0197  -73.7210 H         1 UNK         0.1079 
     72 H72       -74.8267   23.8548  -74.2473 H         1 UNK         0.0837 
     73 H73       -75.3555   23.9962  -72.6037 H         1 UNK         0.0837 
     74 H74       -77.0505   25.8418  -71.7361 H         1 UNK         0.0685 
     75 H75       -75.3964   26.4094  -71.8385 H         1 UNK         0.0685 
     76 H76       -78.9460   27.3489  -72.2891 H         1 UNK         0.1434 
     77 H77       -78.1201   31.5427  -72.6761 H         1 UNK         0.1329 
     78 H78       -74.8927   28.7329  -72.4985 H         1 UNK         0.1335 
     79 H79       -75.8884   32.3346  -72.9481 H         1 UNK         0.0680 
     80 H80       -74.7409   31.1714  -73.5734 H         1 UNK         0.0680 
     81 H81       -73.6290   33.6092  -72.2699 H         1 UNK         0.1032 
     82 H82       -72.6526   33.1881  -70.8907 H         1 UNK         0.1032 
     83 H83       -72.5383   31.9439  -73.6711 H         1 UNK         0.0461 
     84 H84       -69.4316   32.1991  -72.2269 H         1 UNK         0.3453 
     85 H85       -69.0059   33.7284  -72.9561 H         1 UNK         0.3453 
     86 H86       -71.7367   30.6709  -71.2554 H         1 UNK         0.2984 
     87 H87       -69.4585   28.6983  -72.0510 H         1 UNK         0.0554 
     88 H88       -70.9913   29.1338  -70.1827 H         1 UNK         0.0847 
     89 H89       -70.9975   27.4152  -70.5088 H         1 UNK         0.0847 
     90 H90       -72.3452   28.4089  -71.0476 H         1 UNK         0.0847 
     91 H91       -69.8309   26.9904  -73.4016 H         1 UNK         0.3141 
     92 H92       -70.8003   25.9453  -75.2707 H         1 UNK         0.0743 
     93 H93       -71.7224   23.6812  -74.5625 H         1 UNK         0.0784 
     94 H94       -70.8470   24.4634  -73.2557 H         1 UNK         0.0784 
     95 H95       -72.6048   24.4650  -73.2521 H         1 UNK         0.0784 
     96 H96       -73.6632   26.4038  -75.1595 H         1 UNK         0.3213 
     97 H97       -73.9314   26.2532  -78.6285 H         1 UNK         0.0855 
     98 H98       -75.3601   24.2990  -76.7582 H         1 UNK         0.0814 
     99 H99       -74.6137   23.9048  -78.2969 H         1 UNK         0.0814 
    100 H100      -76.0406   24.9316  -78.2596 H         1 UNK         0.0814 
    101 H101      -75.7260   26.7579  -76.3754 H         1 UNK         0.3105 
    102 H102      -74.8404   29.3668  -75.2349 H         1 UNK         0.0547 
    103 H103      -74.4935   31.1317  -76.9115 H         1 UNK         0.0837 
    104 H104      -75.9929   30.7174  -77.7279 H         1 UNK         0.0837 
    105 H105      -76.0261   31.3956  -76.0999 H         1 UNK         0.0837 
    106 H106      -76.8693   28.7149  -74.7643 H         1 UNK         0.3020 
    107 H107      -78.7891   27.5755  -74.9553 H         1 UNK         0.1245 
    108 H108      -79.1982   30.2136  -75.0385 H         1 UNK         0.0781 
    109 H109      -80.4450   29.8411  -76.1840 H         1 UNK         0.0781 
    110 H110      -80.6687   29.4076  -71.6389 H         1 UNK         0.0836 
    111 H111      -80.3720   30.8435  -72.5850 H         1 UNK         0.0836 
    112 H112      -80.6623   27.7636  -77.1762 H         1 UNK         0.3022 
    113 H113      -81.7164   25.8820  -77.7141 H         1 UNK         0.0747 
    114 H114      -80.0599   25.9668  -79.5901 H         1 UNK         0.0793 
    115 H115      -79.3807   24.4238  -79.0964 H         1 UNK         0.0793 
    116 H116      -81.0323   24.5078  -79.7025 H         1 UNK         0.0793 
    117 H117      -80.3731   23.6646  -76.4211 H         1 UNK         0.3047 
    118 H118      -83.4584   22.1898  -75.6312 H         1 UNK         0.0822 
    119 H119      -82.3871   20.0154  -76.1722 H         1 UNK         0.0807 
    120 H120      -81.2032   20.8216  -77.2021 H         1 UNK         0.0807 
    121 H121      -82.9038   20.8165  -77.6454 H         1 UNK         0.0807 
    122 H122      -80.7990   21.5289  -74.8512 H         1 UNK         0.2946 
    123 H123      -80.5204   23.9438  -72.2102 H         1 UNK         0.1144 
    124 H124      -81.7054   21.8316  -71.4398 H         1 UNK         0.0793 
    125 H125      -80.0001   21.8194  -71.0402 H         1 UNK         0.0793 
    126 H126      -80.5901   20.8708  -72.4021 H         1 UNK         0.0793 
    127 H127      -79.2291   22.9469  -74.4931 H         1 UNK         0.2896 
@<TRIPOS>BOND
     1    1    2 1    
     2    1   67 1    
     3    1   68 1    
     4    1   69 1    
     5    2    3 2    
     6    2    4 am   BACKBONE|DICT|INTERRES
     7    4    5 1    
     8    4   70 1    
     9    5    6 1    
    10    5   65 1    
    11    5   71 1    
    12    6    7 1    
    13    6   72 1    
    14    6   73 1    
    15    7    8 1    
    16    8    9 1    
    17    8   74 1    
    18    8   75 1    
    19    9   10 ar   
    20    9   14 ar   
    21   10   11 ar   
    22   10   76 1    
    23   11   12 ar   
    24   11   48 1    
    25   12   13 ar   
    26   12   77 1    
    27   13   14 ar   
    28   13   15 1    
    29   14   78 1    
    30   15   16 1    
    31   15   79 1    
    32   15   80 1    
    33   16   17 1    
    34   17   18 1    
    35   17   81 1    
    36   17   82 1    
    37   18   19 1    
    38   18   22 1    
    39   18   83 1    
    40   19   20 am   BACKBONE|DICT|INTERRES
    41   19   21 2    
    42   20   84 1    
    43   20   85 1    
    44   22   23 am   BACKBONE|DICT|INTERRES
    45   22   86 1    
    46   23   24 2    
    47   23   25 1    
    48   25   26 1    
    49   25   27 1    
    50   25   87 1    
    51   26   88 1    
    52   26   89 1    
    53   26   90 1    
    54   27   28 am   BACKBONE|DICT|INTERRES
    55   27   91 1    
    56   28   29 2    
    57   28   30 1    
    58   30   31 1    
    59   30   32 1    
    60   30   92 1    
    61   31   93 1    
    62   31   94 1    
    63   31   95 1    
    64   32   33 am   BACKBONE|DICT|INTERRES
    65   32   96 1    
    66   33   34 2    
    67   33   35 1    
    68   35   36 1    
    69   35   37 1    
    70   35   97 1    
    71   36   98 1    
    72   36   99 1    
    73   36  100 1    
    74   37   38 am   BACKBONE|DICT|INTERRES
    75   37  101 1    
    76   38   39 2    
    77   38   40 1    
    78   40   41 1    
    79   40   42 1    
    80   40  102 1    
    81   41  103 1    
    82   41  104 1    
    83   41  105 1    
    84   42   43 am   BACKBONE|DICT|INTERRES
    85   42  106 1    
    86   43   44 2    
    87   43   45 1    
    88   45   46 1    
    89   45   49 1    
    90   45  107 1    
    91   46   47 1    
    92   46  108 1    
    93   46  109 1    
    94   47   48 1    
    95   48  110 1    
    96   48  111 1    
    97   49   50 am   BACKBONE|DICT|INTERRES
    98   49  112 1    
    99   50   51 2    
   100   50   52 1    
   101   52   53 1    
   102   52   54 1    
   103   52  113 1    
   104   53  114 1    
   105   53  115 1    
   106   53  116 1    
   107   54   55 am   BACKBONE|DICT|INTERRES
   108   54  117 1    
   109   55   56 2    
   110   55   57 1    
   111   57   58 1    
   112   57   59 1    
   113   57  118 1    
   114   58  119 1    
   115   58  120 1    
   116   58  121 1    
   117   59   60 am   BACKBONE|DICT|INTERRES
   118   59  122 1    
   119   60   61 2    
   120   60   62 1    
   121   62   63 1    
   122   62   64 1    
   123   62  123 1    
   124   63  124 1    
   125   63  125 1    
   126   63  126 1    
   127   64   65 am   BACKBONE|DICT|INTERRES
   128   64  127 1    
   129   65   66 2    
@<TRIPOS>SUBSTRUCTURE
     1 UNK         1 GROUP             0       ****    0 ROOT    
