@<TRIPOS>MOLECULE
3R135
127   129    1
SMALL
USER_CHARGES


@<TRIPOS>ATOM
      1 CA        -84.1411   26.7320  -69.2100 C.3       0 UNK        -0.1998 
      2 C         -84.0158   26.7822  -70.7252 C.2       0 UNK         0.4909 
      3 O         -85.0298   26.8124  -71.4232 O.2       0 UNK        -0.5240 
      4 N         -82.7789   26.7940  -71.2387 N.am      1 UNK        -0.4739 
      5 CA        -82.4603   26.8045  -72.6726 C.3       1 UNK         0.0864 
      6 C6        -80.9892   27.2214  -72.9328 C.3       11 UNK        -0.0881 
      7 S7        -79.7615   26.2412  -71.9967 S.3       11 UNK        -0.2682 
      8 C8        -78.2635   26.4754  -73.0011 C.3       11 UNK         0.0289 
      9 C9        -77.7458   27.9032  -72.9522 C.ar      11 UNK        -0.0687 
     10 C10       -78.0373   28.7992  -73.9847 C.ar      11 UNK        -0.0823 
     11 C11       -77.4941   30.0877  -73.9784 C.ar      11 UNK        -0.0830 
     12 C12       -76.6778   30.4864  -72.9146 C.ar      11 UNK        -0.1021 
     13 C13       -76.3980   29.6041  -71.8673 C.ar      11 UNK        -0.0753 
     14 C14       -76.9345   28.3143  -71.8923 C.ar      11 UNK        -0.0933 
     15 C15       -75.5176   30.0315  -70.7045 C.3       11 UNK         0.0166 
     16 S16       -73.7859   29.5490  -70.9757 S.3       11 UNK        -0.2615 
     17 C17       -73.0875   31.0846  -71.6804 C.3       11 UNK        -0.0865 
     18 CA        -71.7075   30.8922  -72.3623 C.3       10 UNK         0.0862 
     19 C         -70.6065   30.4472  -71.3510 C.2       10 UNK         0.5551 
     20 N         -70.0911   29.2242  -71.4250 N.am      10 UNK        -0.7319 
     21 O         -70.2095   31.2330  -70.4939 O.2       10 UNK        -0.5018 
     22 N         -71.8168   30.0515  -73.5621 N.am      10 UNK        -0.4509 
     23 C         -70.8767   29.9468  -74.5106 C.2       10 UNK         0.4899 
     24 O         -69.8805   30.6702  -74.5591 O.2       10 UNK        -0.4839 
     25 CA        -71.0729   28.8598  -75.5876 C.3       9 UNK         0.0222 
     26 CB        -69.7383   28.2130  -76.0126 C.3       9 UNK        -0.1966 
     27 N         -72.0522   27.8201  -75.2455 N.am      9 UNK        -0.4218 
     28 C         -72.0317   26.9708  -74.2061 C.2       9 UNK         0.5020 
     29 O         -71.1850   26.9938  -73.3106 O.2       9 UNK        -0.5274 
     30 CA        -73.1569   25.9223  -74.1601 C.3       8 UNK         0.0270 
     31 CB        -74.4528   26.5377  -73.6114 C.3       8 UNK        -0.1976 
     32 N         -73.4212   25.3151  -75.4674 N.am      8 UNK        -0.4313 
     33 C         -72.5599   24.5258  -76.1267 C.2       8 UNK         0.5041 
     34 O         -71.4675   24.1731  -75.6804 O.2       8 UNK        -0.5577 
     35 CA        -72.9832   24.0571  -77.5264 C.3       7 UNK         0.0284 
     36 CB        -73.9354   22.8528  -77.4378 C.3       7 UNK        -0.1958 
     37 N         -73.6086   25.1415  -78.2863 N.am      7 UNK        -0.4454 
     38 C         -72.9234   26.0977  -78.9311 C.2       7 UNK         0.5089 
     39 O         -71.6954   26.1222  -79.0144 O.2       7 UNK        -0.5125 
     40 CA        -73.7390   27.2225  -79.5978 C.3       6 UNK         0.0408 
     41 CB        -74.0111   26.8836  -81.0719 C.3       6 UNK        -0.1791 
     42 N         -75.0095   27.5073  -78.9246 N.am      6 UNK        -0.4762 
     43 C         -75.1193   28.0228  -77.6907 C.2       6 UNK         0.5007 
     44 O         -74.1534   28.3363  -76.9974 O.2       6 UNK        -0.5032 
     45 CA        -76.5413   28.1240  -77.1010 C.3       5 UNK         0.0783 
     46 C46       -77.2226   29.4772  -77.4231 C.3       11 UNK        -0.0857 
     47 S47       -76.5566   30.8792  -76.4609 S.3       11 UNK        -0.2512 
     48 C48       -77.7798   31.0512  -75.1205 C.3       11 UNK         0.0225 
     49 N         -77.3872   26.9938  -77.5048 N.am      5 UNK        -0.4615 
     50 C         -77.1480   25.7162  -77.1865 C.2       4 UNK         0.5053 
     51 O         -76.1830   25.3484  -76.5115 O.2       4 UNK        -0.5105 
     52 CA        -78.1005   24.6705  -77.7845 C.3       4 UNK         0.0263 
     53 CB        -77.4527   23.9870  -78.9996 C.3       4 UNK        -0.1981 
     54 N         -78.4534   23.6613  -76.7868 N.am      4 UNK        -0.4224 
     55 C         -79.3187   23.8786  -75.7895 C.2       3 UNK         0.4895 
     56 O         -79.9698   24.9192  -75.6702 O.2       3 UNK        -0.5091 
     57 CA        -79.4541   22.7561  -74.7479 C.3       3 UNK         0.0250 
     58 CB        -78.1959   22.6714  -73.8658 C.3       3 UNK        -0.1996 
     59 N         -80.6131   22.9978  -73.8887 N.am      3 UNK        -0.4254 
     60 C         -81.8398   22.5021  -74.0946 C.2       2 UNK         0.5004 
     61 O         -82.1126   21.6837  -74.9739 O.2       2 UNK        -0.5226 
     62 CA        -82.9569   23.0031  -73.1605 C.3       2 UNK         0.0269 
     63 CB        -83.1443   22.0396  -71.9773 C.3       2 UNK        -0.1926 
     64 N         -82.7151   24.3548  -72.6462 N.am      2 UNK        -0.4687 
     65 C         -82.8113   25.4759  -73.3776 C.2       1 UNK         0.5165 
     66 O         -83.1772   25.4924  -74.5537 O.2       1 UNK        -0.5079 
     67 H67       -84.6860   25.8380  -68.9082 H         1 UNK         0.0900 
     68 H68       -84.6881   27.6029  -68.8498 H         1 UNK         0.0900 
     69 H69       -83.1673   26.7173  -68.7207 H         1 UNK         0.0900 
     70 H70       -81.9778   26.7718  -70.6225 H         1 UNK         0.2959 
     71 H71       -83.0952   27.5635  -73.1359 H         1 UNK         0.1079 
     72 H72       -80.7617   27.1658  -73.9996 H         1 UNK         0.0837 
     73 H73       -80.8550   28.2688  -72.6577 H         1 UNK         0.0837 
     74 H74       -78.4509   26.1781  -74.0316 H         1 UNK         0.0685 
     75 H75       -77.4912   25.8022  -72.6282 H         1 UNK         0.0685 
     76 H76       -78.6650   28.4836  -74.8067 H         1 UNK         0.1434 
     77 H77       -76.2568   31.4824  -72.9045 H         1 UNK         0.1329 
     78 H78       -76.7075   27.6228  -71.0923 H         1 UNK         0.1335 
     79 H79       -75.8712   29.5596  -69.7865 H         1 UNK         0.0680 
     80 H80       -75.5906   31.1073  -70.5378 H         1 UNK         0.0680 
     81 H81       -73.7937   31.4963  -72.4027 H         1 UNK         0.1032 
     82 H82       -73.0130   31.8278  -70.8843 H         1 UNK         0.1032 
     83 H83       -71.3971   31.8793  -72.7108 H         1 UNK         0.0461 
     84 H84       -70.4372   28.5615  -72.1097 H         1 UNK         0.3453 
     85 H85       -69.3778   28.9465  -70.7704 H         1 UNK         0.3453 
     86 H86       -72.5942   29.4085  -73.5806 H         1 UNK         0.2984 
     87 H87       -71.4814   29.3740  -76.4586 H         1 UNK         0.0554 
     88 H88       -69.8917   27.4685  -76.7944 H         1 UNK         0.0847 
     89 H89       -69.2437   27.7216  -75.1741 H         1 UNK         0.0847 
     90 H90       -69.0464   28.9573  -76.4086 H         1 UNK         0.0847 
     91 H91       -72.8450   27.7743  -75.8852 H         1 UNK         0.3141 
     92 H92       -72.8433   25.1272  -73.4804 H         1 UNK         0.0743 
     93 H93       -74.2989   26.9390  -72.6090 H         1 UNK         0.0784 
     94 H94       -74.8156   27.3543  -74.2366 H         1 UNK         0.0784 
     95 H95       -75.2443   25.7919  -73.5443 H         1 UNK         0.0784 
     96 H96       -74.3326   25.4898  -75.8820 H         1 UNK         0.3213 
     97 H97       -72.0845   23.7308  -78.0550 H         1 UNK         0.0855 
     98 H98       -74.8506   23.0910  -76.8956 H         1 UNK         0.0814 
     99 H99       -73.4589   22.0226  -76.9148 H         1 UNK         0.0814 
    100 H100      -74.2121   22.4924  -78.4285 H         1 UNK         0.0814 
    101 H101      -74.6133   25.2229  -78.2252 H         1 UNK         0.3105 
    102 H102      -73.1327   28.1304  -79.5638 H         1 UNK         0.0547 
    103 H103      -74.6323   25.9931  -81.1754 H         1 UNK         0.0837 
    104 H104      -74.5119   27.7057  -81.5834 H         1 UNK         0.0837 
    105 H105      -73.0790   26.6934  -81.6061 H         1 UNK         0.0837 
    106 H106      -75.8549   27.2732  -79.4248 H         1 UNK         0.3020 
    107 H107      -76.4208   28.0487  -76.0192 H         1 UNK         0.1245 
    108 H108      -78.2942   29.4124  -77.2299 H         1 UNK         0.0781 
    109 H109      -77.1354   29.7130  -78.4856 H         1 UNK         0.0781 
    110 H110      -77.7458   32.0773  -74.7511 H         1 UNK         0.0836 
    111 H111      -78.7911   30.9076  -75.5036 H         1 UNK         0.0836 
    112 H112      -78.1929   27.2138  -78.0727 H         1 UNK         0.3022 
    113 H113      -79.0146   25.1669  -78.1182 H         1 UNK         0.0747 
    114 H114      -77.1847   24.7166  -79.7649 H         1 UNK         0.0793 
    115 H115      -78.1359   23.2739  -79.4614 H         1 UNK         0.0793 
    116 H116      -76.5443   23.4492  -78.7288 H         1 UNK         0.0793 
    117 H117      -77.9234   22.8022  -76.8017 H         1 UNK         0.3047 
    118 H118      -79.5733   21.8090  -75.2789 H         1 UNK         0.0822 
    119 H119      -77.3002   22.4938  -74.4623 H         1 UNK         0.0807 
    120 H120      -78.2723   21.8525  -73.1503 H         1 UNK         0.0807 
    121 H121      -78.0339   23.5891  -73.3021 H         1 UNK         0.0807 
    122 H122      -80.5078   23.7195  -73.1900 H         1 UNK         0.2946 
    123 H123      -83.8825   23.0180  -73.7409 H         1 UNK         0.1144 
    124 H124      -83.3525   21.0277  -72.3281 H         1 UNK         0.0793 
    125 H125      -83.9822   22.3414  -71.3485 H         1 UNK         0.0793 
    126 H126      -82.2530   21.9901  -71.3505 H         1 UNK         0.0793 
    127 H127      -82.4232   24.4390  -71.6830 H         1 UNK         0.2896 
@<TRIPOS>BOND
     1    1    2 1    
     2    1   67 1    
     3    1   68 1    
     4    1   69 1    
     5    2    3 2    
     6    2    4 am   BACKBONE|DICT|INTERRES
     7    4    5 1    
     8    4   70 1    
     9    5    6 1    
    10    5   65 1    
    11    5   71 1    
    12    6    7 1    
    13    6   72 1    
    14    6   73 1    
    15    7    8 1    
    16    8    9 1    
    17    8   74 1    
    18    8   75 1    
    19    9   10 ar   
    20    9   14 ar   
    21   10   11 ar   
    22   10   76 1    
    23   11   12 ar   
    24   11   48 1    
    25   12   13 ar   
    26   12   77 1    
    27   13   14 ar   
    28   13   15 1    
    29   14   78 1    
    30   15   16 1    
    31   15   79 1    
    32   15   80 1    
    33   16   17 1    
    34   17   18 1    
    35   17   81 1    
    36   17   82 1    
    37   18   19 1    
    38   18   22 1    
    39   18   83 1    
    40   19   20 am   BACKBONE|DICT|INTERRES
    41   19   21 2    
    42   20   84 1    
    43   20   85 1    
    44   22   23 am   BACKBONE|DICT|INTERRES
    45   22   86 1    
    46   23   24 2    
    47   23   25 1    
    48   25   26 1    
    49   25   27 1    
    50   25   87 1    
    51   26   88 1    
    52   26   89 1    
    53   26   90 1    
    54   27   28 am   BACKBONE|DICT|INTERRES
    55   27   91 1    
    56   28   29 2    
    57   28   30 1    
    58   30   31 1    
    59   30   32 1    
    60   30   92 1    
    61   31   93 1    
    62   31   94 1    
    63   31   95 1    
    64   32   33 am   BACKBONE|DICT|INTERRES
    65   32   96 1    
    66   33   34 2    
    67   33   35 1    
    68   35   36 1    
    69   35   37 1    
    70   35   97 1    
    71   36   98 1    
    72   36   99 1    
    73   36  100 1    
    74   37   38 am   BACKBONE|DICT|INTERRES
    75   37  101 1    
    76   38   39 2    
    77   38   40 1    
    78   40   41 1    
    79   40   42 1    
    80   40  102 1    
    81   41  103 1    
    82   41  104 1    
    83   41  105 1    
    84   42   43 am   BACKBONE|DICT|INTERRES
    85   42  106 1    
    86   43   44 2    
    87   43   45 1    
    88   45   46 1    
    89   45   49 1    
    90   45  107 1    
    91   46   47 1    
    92   46  108 1    
    93   46  109 1    
    94   47   48 1    
    95   48  110 1    
    96   48  111 1    
    97   49   50 am   BACKBONE|DICT|INTERRES
    98   49  112 1    
    99   50   51 2    
   100   50   52 1    
   101   52   53 1    
   102   52   54 1    
   103   52  113 1    
   104   53  114 1    
   105   53  115 1    
   106   53  116 1    
   107   54   55 am   BACKBONE|DICT|INTERRES
   108   54  117 1    
   109   55   56 2    
   110   55   57 1    
   111   57   58 1    
   112   57   59 1    
   113   57  118 1    
   114   58  119 1    
   115   58  120 1    
   116   58  121 1    
   117   59   60 am   BACKBONE|DICT|INTERRES
   118   59  122 1    
   119   60   61 2    
   120   60   62 1    
   121   62   63 1    
   122   62   64 1    
   123   62  123 1    
   124   63  124 1    
   125   63  125 1    
   126   63  126 1    
   127   64   65 am   BACKBONE|DICT|INTERRES
   128   64  127 1    
   129   65   66 2    
@<TRIPOS>SUBSTRUCTURE
     1 UNK         1 GROUP             0       ****    0 ROOT    
