@<TRIPOS>MOLECULE
3R135
127   129    1
SMALL
USER_CHARGES


@<TRIPOS>ATOM
      1 CA        -78.2869   25.8029  -70.4367 C.3       0 UNK        -0.1998 
      2 C         -79.8062   25.8217  -70.4675 C.2       0 UNK         0.4909 
      3 O         -80.4410   24.8384  -70.0849 O.2       0 UNK        -0.5240 
      4 N         -80.3937   26.9367  -70.9232 N.am      1 UNK        -0.4739 
      5 CA        -81.8479   27.1246  -71.0450 C.3       1 UNK         0.0864 
      6 C6        -82.2495   28.6105  -71.2306 C.3       11 UNK        -0.0881 
      7 S7        -81.6333   29.6929  -69.8924 S.3       11 UNK        -0.2682 
      8 C8        -80.4781   30.7929  -70.7754 C.3       11 UNK         0.0289 
      9 C9        -79.2243   30.0547  -71.2189 C.ar      11 UNK        -0.0687 
     10 C10       -79.1383   29.5289  -72.5106 C.ar      11 UNK        -0.0823 
     11 C11       -78.0119   28.8047  -72.9045 C.ar      11 UNK        -0.0830 
     12 C12       -76.9504   28.6353  -72.0120 C.ar      11 UNK        -0.1021 
     13 C13       -77.0079   29.1896  -70.7314 C.ar      11 UNK        -0.0753 
     14 C14       -78.1519   29.8908  -70.3363 C.ar      11 UNK        -0.0933 
     15 C15       -75.8443   29.0163  -69.7685 C.3       11 UNK         0.0166 
     16 S16       -74.5953   30.3234  -69.9851 S.3       11 UNK        -0.2615 
     17 C17       -73.5787   29.6881  -71.3674 C.3       11 UNK        -0.0865 
     18 CA        -73.7502   30.4615  -72.7030 C.3       10 UNK         0.0862 
     19 C         -73.2483   31.9299  -72.5926 C.2       10 UNK         0.5551 
     20 N         -74.1529   32.8954  -72.5027 N.am      10 UNK        -0.7319 
     21 O         -72.0470   32.1916  -72.5569 O.2       10 UNK        -0.5018 
     22 N         -73.0785   29.7257  -73.7836 N.am      10 UNK        -0.4509 
     23 C         -73.0466   30.0476  -75.0822 C.2       10 UNK         0.4899 
     24 O         -73.6593   30.9979  -75.5686 O.2       10 UNK        -0.4839 
     25 CA        -72.1910   29.1615  -76.0134 C.3       9 UNK         0.0222 
     26 CB        -70.7414   29.6799  -76.0831 C.3       9 UNK        -0.1966 
     27 N         -72.2327   27.7149  -75.7310 N.am      9 UNK        -0.4218 
     28 C         -71.7905   27.0595  -74.6457 C.2       9 UNK         0.5020 
     29 O         -71.2386   27.6123  -73.6932 O.2       9 UNK        -0.5274 
     30 CA        -72.0538   25.5480  -74.5534 C.3       8 UNK         0.0270 
     31 CB        -73.2335   25.2824  -73.6010 C.3       8 UNK        -0.1976 
     32 N         -72.3176   24.8875  -75.8344 N.am      8 UNK        -0.4313 
     33 C         -71.3787   24.5621  -76.7342 C.2       8 UNK         0.5041 
     34 O         -70.1972   24.8948  -76.6357 O.2       8 UNK        -0.5577 
     35 CA        -71.8180   23.7028  -77.9313 C.3       7 UNK         0.0284 
     36 CB        -71.9261   22.2254  -77.5178 C.3       7 UNK        -0.1958 
     37 N         -73.1040   24.1473  -78.4696 N.am      7 UNK        -0.4454 
     38 C         -73.2895   24.6643  -79.6926 C.2       7 UNK         0.5089 
     39 O         -72.4078   24.7370  -80.5496 O.2       7 UNK        -0.5125 
     40 CA        -74.6939   25.2165  -80.0207 C.3       6 UNK         0.0408 
     41 CB        -75.5206   24.1609  -80.7711 C.3       6 UNK        -0.1791 
     42 N         -75.4500   25.6710  -78.8485 N.am      6 UNK        -0.4762 
     43 C         -75.0371   26.6134  -77.9854 C.2       6 UNK         0.5007 
     44 O         -74.0060   27.2675  -78.1360 O.2       6 UNK        -0.5032 
     45 CA        -75.8578   26.8234  -76.6956 C.3       5 UNK         0.0783 
     46 C46       -76.7716   28.0709  -76.8254 C.3       11 UNK        -0.0857 
     47 S47       -76.7360   29.0801  -75.3161 S.3       11 UNK        -0.2512 
     48 C48       -77.9416   28.1967  -74.2914 C.3       11 UNK         0.0225 
     49 N         -76.6169   25.6371  -76.2726 N.am      5 UNK        -0.4615 
     50 C         -76.1328   24.3987  -76.0895 C.2       4 UNK         0.5053 
     51 O         -74.9376   24.1171  -76.1760 O.2       4 UNK        -0.5105 
     52 CA        -77.1444   23.2680  -75.8275 C.3       4 UNK         0.0263 
     53 CB        -77.1646   22.9223  -74.3300 C.3       4 UNK        -0.1981 
     54 N         -78.5141   23.5545  -76.2697 N.am      4 UNK        -0.4224 
     55 C         -78.9060   23.9324  -77.4965 C.2       3 UNK         0.4895 
     56 O         -78.1358   24.0294  -78.4538 O.2       3 UNK        -0.5091 
     57 CA        -80.3917   24.3089  -77.6895 C.3       3 UNK         0.0250 
     58 CB        -81.0554   23.3696  -78.7110 C.3       3 UNK        -0.1996 
     59 N         -81.2107   24.3328  -76.4671 N.am      3 UNK        -0.4254 
     60 C         -81.0390   25.1378  -75.4081 C.2       2 UNK         0.5004 
     61 O         -80.1229   25.9593  -75.3162 O.2       2 UNK        -0.5226 
     62 CA        -82.0225   24.9508  -74.2427 C.3       2 UNK         0.0269 
     63 CB        -82.0139   23.4976  -73.7202 C.3       2 UNK        -0.1926 
     64 N         -81.6646   25.8597  -73.1557 N.am      2 UNK        -0.4687 
     65 C         -82.4692   26.2511  -72.1589 C.2       1 UNK         0.5165 
     66 O         -83.6585   25.9373  -72.0852 O.2       1 UNK        -0.5079 
     67 H67       -77.8816   25.9481  -71.4375 H         1 UNK         0.0900 
     68 H68       -77.9190   24.8489  -70.0597 H         1 UNK         0.0900 
     69 H69       -77.9092   26.5908  -69.7860 H         1 UNK         0.0900 
     70 H70       -79.8244   27.7319  -71.1835 H         1 UNK         0.2959 
     71 H71       -82.2932   26.7819  -70.1081 H         1 UNK         0.1079 
     72 H72       -81.9195   28.9852  -72.1995 H         1 UNK         0.0837 
     73 H73       -83.3375   28.7020  -71.2387 H         1 UNK         0.0837 
     74 H74       -80.9831   31.2469  -71.6295 H         1 UNK         0.0685 
     75 H75       -80.2025   31.6159  -70.1142 H         1 UNK         0.0685 
     76 H76       -79.9541   29.6698  -73.2063 H         1 UNK         0.1434 
     77 H77       -76.0751   28.0813  -72.3220 H         1 UNK         0.1329 
     78 H78       -78.2104   30.3066  -69.3395 H         1 UNK         0.1335 
     79 H79       -75.3897   28.0316  -69.8871 H         1 UNK         0.0680 
     80 H80       -76.2092   29.0545  -68.7410 H         1 UNK         0.0680 
     81 H81       -73.8124   28.6338  -71.5195 H         1 UNK         0.1032 
     82 H82       -72.5328   29.7074  -71.0545 H         1 UNK         0.1032 
     83 H83       -74.8126   30.4759  -72.9546 H         1 UNK         0.0461 
     84 H84       -75.1379   32.6814  -72.5109 H         1 UNK         0.3453 
     85 H85       -73.8465   33.8517  -72.4184 H         1 UNK         0.3453 
     86 H86       -72.4688   28.9636  -73.4992 H         1 UNK         0.2984 
     87 H87       -72.6167   29.2710  -77.0118 H         1 UNK         0.0554 
     88 H88       -70.1494   29.1074  -76.7971 H         1 UNK         0.0847 
     89 H89       -70.2412   29.6301  -75.1155 H         1 UNK         0.0847 
     90 H90       -70.7174   30.7222  -76.4038 H         1 UNK         0.0847 
     91 H91       -72.6773   27.1686  -76.4595 H         1 UNK         0.3141 
     92 H92       -71.1617   25.0929  -74.1176 H         1 UNK         0.0743 
     93 H93       -74.1569   25.7375  -73.9602 H         1 UNK         0.0784 
     94 H94       -73.4130   24.2141  -73.4783 H         1 UNK         0.0784 
     95 H95       -73.0354   25.6915  -72.6092 H         1 UNK         0.0784 
     96 H96       -73.2700   24.5495  -75.9719 H         1 UNK         0.3213 
     97 H97       -71.0371   23.7836  -78.6906 H         1 UNK         0.0855 
     98 H98       -72.6989   22.0700  -76.7636 H         1 UNK         0.0814 
     99 H99       -70.9842   21.8662  -77.1009 H         1 UNK         0.0814 
    100 H100      -72.1632   21.5933  -78.3737 H         1 UNK         0.0814 
    101 H101      -73.8929   24.1317  -77.8312 H         1 UNK         0.3105 
    102 H102      -74.5602   26.0782  -80.6777 H         1 UNK         0.0547 
    103 H103      -74.9996   23.8185  -81.6663 H         1 UNK         0.0837 
    104 H104      -75.7146   23.2854  -80.1500 H         1 UNK         0.0837 
    105 H105      -76.4824   24.5626  -81.0904 H         1 UNK         0.0837 
    106 H106      -76.3141   25.1768  -78.6498 H         1 UNK         0.3020 
    107 H107      -75.1147   27.0041  -75.9166 H         1 UNK         0.1245 
    108 H108      -77.7995   27.7981  -77.0725 H         1 UNK         0.0781 
    109 H109      -76.4482   28.7359  -77.6298 H         1 UNK         0.0781 
    110 H110      -77.6655   27.1454  -74.2064 H         1 UNK         0.0836 
    111 H111      -78.9161   28.2288  -74.7803 H         1 UNK         0.0836 
    112 H112      -77.6157   25.7606  -76.1806 H         1 UNK         0.3022 
    113 H113      -76.7987   22.3938  -76.3824 H         1 UNK         0.0747 
    114 H114      -77.7933   22.0543  -74.1304 H         1 UNK         0.0793 
    115 H115      -76.1627   22.6825  -73.9701 H         1 UNK         0.0793 
    116 H116      -77.5365   23.7532  -73.7286 H         1 UNK         0.0793 
    117 H117      -79.2253   23.5226  -75.5550 H         1 UNK         0.3047 
    118 H118      -80.4001   25.3195  -78.1030 H         1 UNK         0.0822 
    119 H119      -82.0732   23.6858  -78.9402 H         1 UNK         0.0807 
    120 H120      -80.5048   23.3601  -79.6530 H         1 UNK         0.0807 
    121 H121      -81.0950   22.3421  -78.3473 H         1 UNK         0.0807 
    122 H122      -81.9812   23.6799  -76.4462 H         1 UNK         0.2946 
    123 H123      -83.0202   25.2063  -74.6069 H         1 UNK         0.1144 
    124 H124      -82.3171   22.7875  -74.4900 H         1 UNK         0.0793 
    125 H125      -82.7066   23.3697  -72.8882 H         1 UNK         0.0793 
    126 H126      -81.0233   23.2030  -73.3710 H         1 UNK         0.0793 
    127 H127      -80.7153   26.2082  -73.1945 H         1 UNK         0.2896 
@<TRIPOS>BOND
     1    1    2 1    
     2    1   67 1    
     3    1   68 1    
     4    1   69 1    
     5    2    3 2    
     6    2    4 am   BACKBONE|DICT|INTERRES
     7    4    5 1    
     8    4   70 1    
     9    5    6 1    
    10    5   65 1    
    11    5   71 1    
    12    6    7 1    
    13    6   72 1    
    14    6   73 1    
    15    7    8 1    
    16    8    9 1    
    17    8   74 1    
    18    8   75 1    
    19    9   10 ar   
    20    9   14 ar   
    21   10   11 ar   
    22   10   76 1    
    23   11   12 ar   
    24   11   48 1    
    25   12   13 ar   
    26   12   77 1    
    27   13   14 ar   
    28   13   15 1    
    29   14   78 1    
    30   15   16 1    
    31   15   79 1    
    32   15   80 1    
    33   16   17 1    
    34   17   18 1    
    35   17   81 1    
    36   17   82 1    
    37   18   19 1    
    38   18   22 1    
    39   18   83 1    
    40   19   20 am   BACKBONE|DICT|INTERRES
    41   19   21 2    
    42   20   84 1    
    43   20   85 1    
    44   22   23 am   BACKBONE|DICT|INTERRES
    45   22   86 1    
    46   23   24 2    
    47   23   25 1    
    48   25   26 1    
    49   25   27 1    
    50   25   87 1    
    51   26   88 1    
    52   26   89 1    
    53   26   90 1    
    54   27   28 am   BACKBONE|DICT|INTERRES
    55   27   91 1    
    56   28   29 2    
    57   28   30 1    
    58   30   31 1    
    59   30   32 1    
    60   30   92 1    
    61   31   93 1    
    62   31   94 1    
    63   31   95 1    
    64   32   33 am   BACKBONE|DICT|INTERRES
    65   32   96 1    
    66   33   34 2    
    67   33   35 1    
    68   35   36 1    
    69   35   37 1    
    70   35   97 1    
    71   36   98 1    
    72   36   99 1    
    73   36  100 1    
    74   37   38 am   BACKBONE|DICT|INTERRES
    75   37  101 1    
    76   38   39 2    
    77   38   40 1    
    78   40   41 1    
    79   40   42 1    
    80   40  102 1    
    81   41  103 1    
    82   41  104 1    
    83   41  105 1    
    84   42   43 am   BACKBONE|DICT|INTERRES
    85   42  106 1    
    86   43   44 2    
    87   43   45 1    
    88   45   46 1    
    89   45   49 1    
    90   45  107 1    
    91   46   47 1    
    92   46  108 1    
    93   46  109 1    
    94   47   48 1    
    95   48  110 1    
    96   48  111 1    
    97   49   50 am   BACKBONE|DICT|INTERRES
    98   49  112 1    
    99   50   51 2    
   100   50   52 1    
   101   52   53 1    
   102   52   54 1    
   103   52  113 1    
   104   53  114 1    
   105   53  115 1    
   106   53  116 1    
   107   54   55 am   BACKBONE|DICT|INTERRES
   108   54  117 1    
   109   55   56 2    
   110   55   57 1    
   111   57   58 1    
   112   57   59 1    
   113   57  118 1    
   114   58  119 1    
   115   58  120 1    
   116   58  121 1    
   117   59   60 am   BACKBONE|DICT|INTERRES
   118   59  122 1    
   119   60   61 2    
   120   60   62 1    
   121   62   63 1    
   122   62   64 1    
   123   62  123 1    
   124   63  124 1    
   125   63  125 1    
   126   63  126 1    
   127   64   65 am   BACKBONE|DICT|INTERRES
   128   64  127 1    
   129   65   66 2    
@<TRIPOS>SUBSTRUCTURE
     1 UNK         1 GROUP             0       ****    0 ROOT    
