@<TRIPOS>MOLECULE
3R135
127   129    1
SMALL
USER_CHARGES


@<TRIPOS>ATOM
      1 CA        -80.1277   31.5740  -74.2175 C.3       0 UNK        -0.1998 
      2 C         -79.5940   30.1503  -74.1992 C.2       0 UNK         0.4909 
      3 O         -78.5320   29.8877  -74.7624 O.2       0 UNK        -0.5240 
      4 N         -80.3288   29.2241  -73.5702 N.am      1 UNK        -0.4739 
      5 CA        -79.9635   27.8143  -73.3592 C.3       1 UNK         0.0864 
      6 C6        -80.7445   27.1925  -72.1655 C.3       11 UNK        -0.0881 
      7 S7        -80.7741   28.2386  -70.6667 S.3       11 UNK        -0.2682 
      8 C8        -79.4926   27.4737  -69.6253 C.3       11 UNK         0.0289 
      9 C9        -78.0890   27.6603  -70.1864 C.ar      11 UNK        -0.0687 
     10 C10       -77.2889   26.5460  -70.4562 C.ar      11 UNK        -0.0823 
     11 C11       -75.9849   26.7081  -70.9340 C.ar      11 UNK        -0.0830 
     12 C12       -75.4827   27.9955  -71.1405 C.ar      11 UNK        -0.1021 
     13 C13       -76.2787   29.1169  -70.8945 C.ar      11 UNK        -0.0753 
     14 C14       -77.5781   28.9444  -70.4087 C.ar      11 UNK        -0.0933 
     15 C15       -75.7287   30.5078  -71.1653 C.3       11 UNK         0.0166 
     16 S16       -75.6279   30.8166  -72.9537 S.3       11 UNK        -0.2615 
     17 C17       -74.8852   32.4862  -73.0028 C.3       11 UNK        -0.0865 
     18 CA        -73.3522   32.5053  -73.2615 C.3       10 UNK         0.0862 
     19 C         -72.5304   32.2305  -71.9707 C.2       10 UNK         0.5551 
     20 N         -72.4559   33.2023  -71.0714 N.am      10 UNK        -0.7319 
     21 O         -71.9861   31.1478  -71.7611 O.2       10 UNK        -0.5018 
     22 N         -72.9847   31.6177  -74.3713 N.am      10 UNK        -0.4509 
     23 C         -71.8563   31.6811  -75.0859 C.2       10 UNK         0.4899 
     24 O         -71.0392   32.5969  -74.9795 O.2       10 UNK        -0.4839 
     25 CA        -71.5760   30.5349  -76.0813 C.3       9 UNK         0.0222 
     26 CB        -70.1451   29.9933  -75.9133 C.3       9 UNK        -0.1966 
     27 N         -72.5116   29.4112  -75.9660 N.am      9 UNK        -0.4218 
     28 C         -73.7248   29.3288  -76.5228 C.2       9 UNK         0.5020 
     29 O         -74.2086   30.2116  -77.2331 O.2       9 UNK        -0.5274 
     30 CA        -74.5153   28.0363  -76.2327 C.3       8 UNK         0.0270 
     31 CB        -75.9491   28.0791  -76.7928 C.3       8 UNK        -0.1976 
     32 N         -73.8443   26.8394  -76.7485 N.am      8 UNK        -0.4313 
     33 C         -72.7540   26.2564  -76.2324 C.2       8 UNK         0.5041 
     34 O         -72.1403   26.7089  -75.2630 O.2       8 UNK        -0.5577 
     35 CA        -72.2902   24.9468  -76.9021 C.3       7 UNK         0.0284 
     36 CB        -71.1034   24.2956  -76.1682 C.3       7 UNK        -0.1958 
     37 N         -73.3881   23.9807  -76.9715 N.am      7 UNK        -0.4454 
     38 C         -74.3384   23.9439  -77.9122 C.2       7 UNK         0.5089 
     39 O         -74.3526   24.6929  -78.8893 O.2       7 UNK        -0.5125 
     40 CA        -75.5121   22.9781  -77.6806 C.3       6 UNK         0.0408 
     41 CB        -75.1033   21.5035  -77.8616 C.3       6 UNK        -0.1791 
     42 N         -76.1830   23.2269  -76.3990 N.am      6 UNK        -0.4762 
     43 C         -75.7333   23.0121  -75.1526 C.2       6 UNK         0.5007 
     44 O         -74.6762   22.4338  -74.8964 O.2       6 UNK        -0.5032 
     45 CA        -76.5951   23.5695  -74.0035 C.3       5 UNK         0.0783 
     46 C46       -76.3120   25.0714  -73.7610 C.3       11 UNK        -0.0857 
     47 S47       -74.6853   25.3700  -72.9926 S.3       11 UNK        -0.2512 
     48 C48       -75.1154   25.4943  -71.2277 C.3       11 UNK         0.0225 
     49 N         -78.0134   23.3526  -74.2842 N.am      5 UNK        -0.4615 
     50 C         -78.7320   22.3125  -73.8441 C.2       4 UNK         0.5053 
     51 O         -78.2967   21.4540  -73.0765 O.2       4 UNK        -0.5105 
     52 CA        -80.1834   22.2032  -74.3468 C.3       4 UNK         0.0263 
     53 CB        -81.1572   22.8012  -73.3187 C.3       4 UNK        -0.1981 
     54 N         -80.3766   22.8495  -75.6492 N.am      4 UNK        -0.4224 
     55 C         -79.9170   22.3432  -76.8047 C.2       3 UNK         0.4895 
     56 O         -79.3807   21.2385  -76.8955 O.2       3 UNK        -0.5091 
     57 CA        -80.0503   23.2027  -78.0765 C.3       3 UNK         0.0250 
     58 CB        -81.2256   22.7078  -78.9352 C.3       3 UNK        -0.1996 
     59 N         -80.2010   24.6435  -77.8465 N.am      3 UNK        -0.4254 
     60 C         -79.3166   25.4366  -77.2262 C.2       2 UNK         0.5004 
     61 O         -78.2748   25.0226  -76.7161 O.2       2 UNK        -0.5226 
     62 CA        -79.6496   26.9377  -77.1278 C.3       2 UNK         0.0269 
     63 CB        -81.0291   27.3217  -77.7101 C.3       2 UNK        -0.1926 
     64 N         -79.5331   27.4467  -75.7569 N.am      2 UNK        -0.4687 
     65 C         -80.1318   26.9771  -74.6531 C.2       1 UNK         0.5165 
     66 O         -80.8258   25.9576  -74.6448 O.2       1 UNK        -0.5079 
     67 H67       -79.4027   32.2487  -73.7629 H         1 UNK         0.0900 
     68 H68       -80.2983   31.8974  -75.2439 H         1 UNK         0.0900 
     69 H69       -81.0659   31.6652  -73.6706 H         1 UNK         0.0900 
     70 H70       -81.1992   29.5010  -73.1390 H         1 UNK         0.2959 
     71 H71       -78.9008   27.7830  -73.1060 H         1 UNK         0.1079 
     72 H72       -81.7860   27.0185  -72.4433 H         1 UNK         0.0837 
     73 H73       -80.3348   26.2121  -71.9148 H         1 UNK         0.0837 
     74 H74       -79.7275   26.4169  -69.4886 H         1 UNK         0.0685 
     75 H75       -79.5338   27.9265  -68.6339 H         1 UNK         0.0685 
     76 H76       -77.6788   25.5514  -70.2876 H         1 UNK         0.1434 
     77 H77       -74.4774   28.1253  -71.5187 H         1 UNK         0.1329 
     78 H78       -78.1980   29.8078  -70.2090 H         1 UNK         0.1335 
     79 H79       -76.3556   31.2700  -70.6999 H         1 UNK         0.0680 
     80 H80       -74.7377   30.5990  -70.7188 H         1 UNK         0.0680 
     81 H81       -75.1450   33.0382  -72.0975 H         1 UNK         0.1032 
     82 H82       -75.3804   33.0248  -73.8122 H         1 UNK         0.1032 
     83 H83       -73.0959   33.5200  -73.5735 H         1 UNK         0.0461 
     84 H84       -71.9360   33.0434  -70.2225 H         1 UNK         0.3453 
     85 H85       -72.8939   34.0967  -71.2285 H         1 UNK         0.3453 
     86 H86       -73.5925   30.8231  -74.5022 H         1 UNK         0.2984 
     87 H87       -71.6605   30.9566  -77.0849 H         1 UNK         0.0554 
     88 H88       -69.4041   30.7794  -76.0650 H         1 UNK         0.0847 
     89 H89       -69.9301   29.2070  -76.6372 H         1 UNK         0.0847 
     90 H90       -69.9859   29.5827  -74.9153 H         1 UNK         0.0847 
     91 H91       -72.1948   28.5955  -75.4437 H         1 UNK         0.3141 
     92 H92       -74.5908   27.9429  -75.1467 H         1 UNK         0.0743 
     93 H93       -76.4964   28.9345  -76.3941 H         1 UNK         0.0784 
     94 H94       -75.9575   28.1623  -77.8802 H         1 UNK         0.0784 
     95 H95       -76.5088   27.1848  -76.5209 H         1 UNK         0.0784 
     96 H96       -74.2514   26.4103  -77.5714 H         1 UNK         0.3213 
     97 H97       -71.9627   25.1964  -77.9137 H         1 UNK         0.0855 
     98 H98       -71.3606   24.0342  -75.1407 H         1 UNK         0.0814 
     99 H99       -70.2485   24.9721  -76.1293 H         1 UNK         0.0814 
    100 H100      -70.7738   23.3877  -76.6735 H         1 UNK         0.0814 
    101 H101      -73.5222   23.3799  -76.1626 H         1 UNK         0.3105 
    102 H102      -76.2599   23.2006  -78.4437 H         1 UNK         0.0547 
    103 H103      -75.9550   20.8387  -77.7173 H         1 UNK         0.0837 
    104 H104      -74.3197   21.1993  -77.1678 H         1 UNK         0.0837 
    105 H105      -74.7237   21.3302  -78.8692 H         1 UNK         0.0837 
    106 H106      -77.0284   23.7909  -76.4867 H         1 UNK         0.3020 
    107 H107      -76.3225   23.0219  -73.0981 H         1 UNK         0.1245 
    108 H108      -77.0877   25.4980  -73.1249 H         1 UNK         0.0781 
    109 H109      -76.3627   25.6370  -74.6929 H         1 UNK         0.0781 
    110 H110      -74.1959   25.5668  -70.6454 H         1 UNK         0.0836 
    111 H111      -75.6058   24.5719  -70.9126 H         1 UNK         0.0836 
    112 H112      -78.4357   23.9889  -74.9507 H         1 UNK         0.3022 
    113 H113      -80.4171   21.1415  -74.4534 H         1 UNK         0.0747 
    114 H114      -82.1901   22.7317  -73.6599 H         1 UNK         0.0793 
    115 H115      -81.0931   22.2677  -72.3694 H         1 UNK         0.0793 
    116 H116      -80.9397   23.8493  -73.1137 H         1 UNK         0.0793 
    117 H117      -80.7897   23.7740  -75.6452 H         1 UNK         0.3047 
    118 H118      -79.1295   23.0632  -78.6470 H         1 UNK         0.0822 
    119 H119      -81.2675   23.2294  -79.8917 H         1 UNK         0.0807 
    120 H120      -82.1821   22.8508  -78.4307 H         1 UNK         0.0807 
    121 H121      -81.1293   21.6434  -79.1548 H         1 UNK         0.0807 
    122 H122      -81.0419   25.0687  -78.2092 H         1 UNK         0.2946 
    123 H123      -78.8862   27.4503  -77.7150 H         1 UNK         0.1144 
    124 H124      -81.1049   27.0611  -78.7667 H         1 UNK         0.0793 
    125 H125      -81.1928   28.3974  -77.6413 H         1 UNK         0.0793 
    126 H126      -81.8489   26.8336  -77.1811 H         1 UNK         0.0793 
    127 H127      -78.9847   28.2963  -75.6390 H         1 UNK         0.2896 
@<TRIPOS>BOND
     1    1    2 1    
     2    1   67 1    
     3    1   68 1    
     4    1   69 1    
     5    2    3 2    
     6    2    4 am   BACKBONE|DICT|INTERRES
     7    4    5 1    
     8    4   70 1    
     9    5    6 1    
    10    5   65 1    
    11    5   71 1    
    12    6    7 1    
    13    6   72 1    
    14    6   73 1    
    15    7    8 1    
    16    8    9 1    
    17    8   74 1    
    18    8   75 1    
    19    9   10 ar   
    20    9   14 ar   
    21   10   11 ar   
    22   10   76 1    
    23   11   12 ar   
    24   11   48 1    
    25   12   13 ar   
    26   12   77 1    
    27   13   14 ar   
    28   13   15 1    
    29   14   78 1    
    30   15   16 1    
    31   15   79 1    
    32   15   80 1    
    33   16   17 1    
    34   17   18 1    
    35   17   81 1    
    36   17   82 1    
    37   18   19 1    
    38   18   22 1    
    39   18   83 1    
    40   19   20 am   BACKBONE|DICT|INTERRES
    41   19   21 2    
    42   20   84 1    
    43   20   85 1    
    44   22   23 am   BACKBONE|DICT|INTERRES
    45   22   86 1    
    46   23   24 2    
    47   23   25 1    
    48   25   26 1    
    49   25   27 1    
    50   25   87 1    
    51   26   88 1    
    52   26   89 1    
    53   26   90 1    
    54   27   28 am   BACKBONE|DICT|INTERRES
    55   27   91 1    
    56   28   29 2    
    57   28   30 1    
    58   30   31 1    
    59   30   32 1    
    60   30   92 1    
    61   31   93 1    
    62   31   94 1    
    63   31   95 1    
    64   32   33 am   BACKBONE|DICT|INTERRES
    65   32   96 1    
    66   33   34 2    
    67   33   35 1    
    68   35   36 1    
    69   35   37 1    
    70   35   97 1    
    71   36   98 1    
    72   36   99 1    
    73   36  100 1    
    74   37   38 am   BACKBONE|DICT|INTERRES
    75   37  101 1    
    76   38   39 2    
    77   38   40 1    
    78   40   41 1    
    79   40   42 1    
    80   40  102 1    
    81   41  103 1    
    82   41  104 1    
    83   41  105 1    
    84   42   43 am   BACKBONE|DICT|INTERRES
    85   42  106 1    
    86   43   44 2    
    87   43   45 1    
    88   45   46 1    
    89   45   49 1    
    90   45  107 1    
    91   46   47 1    
    92   46  108 1    
    93   46  109 1    
    94   47   48 1    
    95   48  110 1    
    96   48  111 1    
    97   49   50 am   BACKBONE|DICT|INTERRES
    98   49  112 1    
    99   50   51 2    
   100   50   52 1    
   101   52   53 1    
   102   52   54 1    
   103   52  113 1    
   104   53  114 1    
   105   53  115 1    
   106   53  116 1    
   107   54   55 am   BACKBONE|DICT|INTERRES
   108   54  117 1    
   109   55   56 2    
   110   55   57 1    
   111   57   58 1    
   112   57   59 1    
   113   57  118 1    
   114   58  119 1    
   115   58  120 1    
   116   58  121 1    
   117   59   60 am   BACKBONE|DICT|INTERRES
   118   59  122 1    
   119   60   61 2    
   120   60   62 1    
   121   62   63 1    
   122   62   64 1    
   123   62  123 1    
   124   63  124 1    
   125   63  125 1    
   126   63  126 1    
   127   64   65 am   BACKBONE|DICT|INTERRES
   128   64  127 1    
   129   65   66 2    
@<TRIPOS>SUBSTRUCTURE
     1 UNK         1 GROUP             0       ****    0 ROOT    
