@<TRIPOS>MOLECULE
3R135
127   129    1
SMALL
USER_CHARGES


@<TRIPOS>ATOM
      1 CA        -77.4291   23.6818  -68.3003 C.3       0 UNK        -0.1998 
      2 C         -78.5994   24.2539  -69.0862 C.2       0 UNK         0.4909 
      3 O         -79.7525   23.9507  -68.7761 O.2       0 UNK        -0.5240 
      4 N         -78.3113   25.0873  -70.0934 N.am      1 UNK        -0.4739 
      5 CA        -79.3002   25.6948  -70.9927 C.3       1 UNK         0.0864 
      6 C6        -78.6999   26.8634  -71.8192 C.3       11 UNK        -0.0881 
      7 S7        -77.7956   28.0830  -70.8029 S.3       11 UNK        -0.2682 
      8 C8        -78.6939   29.6319  -71.1279 C.3       11 UNK         0.0289 
      9 C9        -78.5908   30.0624  -72.5845 C.ar      11 UNK        -0.0687 
     10 C10       -79.7058   29.9694  -73.4211 C.ar      11 UNK        -0.0823 
     11 C11       -79.6254   30.3656  -74.7578 C.ar      11 UNK        -0.0830 
     12 C12       -78.4188   30.8706  -75.2534 C.ar      11 UNK        -0.1021 
     13 C13       -77.2879   30.9507  -74.4346 C.ar      11 UNK        -0.0753 
     14 C14       -77.3860   30.5572  -73.0949 C.ar      11 UNK        -0.0933 
     15 C15       -75.9759   31.4736  -75.0093 C.3       11 UNK         0.0166 
     16 S16       -74.6064   30.2778  -74.8542 S.3       11 UNK        -0.2615 
     17 C17       -73.6815   31.0011  -73.4519 C.3       11 UNK        -0.0865 
     18 CA        -72.8315   29.9845  -72.6468 C.3       10 UNK         0.0862 
     19 C         -73.6989   29.0308  -71.7729 C.2       10 UNK         0.5551 
     20 N         -73.6069   27.7133  -71.9144 N.am      10 UNK        -0.7319 
     21 O         -74.4501   29.5044  -70.9247 O.2       10 UNK        -0.5018 
     22 N         -71.8327   29.3199  -73.4958 N.am      10 UNK        -0.4509 
     23 C         -70.6740   28.8132  -73.0565 C.2       10 UNK         0.4899 
     24 O         -70.2730   28.9334  -71.8974 O.2       10 UNK        -0.4839 
     25 CA        -69.8228   28.0449  -74.0894 C.3       9 UNK         0.0222 
     26 CB        -68.7821   27.1177  -73.4263 C.3       9 UNK        -0.1966 
     27 N         -70.6176   27.2957  -75.0726 N.am      9 UNK        -0.4218 
     28 C         -71.5376   26.3505  -74.8319 C.2       9 UNK         0.5020 
     29 O         -71.9012   26.0124  -73.7037 O.2       9 UNK        -0.5274 
     30 CA        -72.1758   25.7102  -76.0772 C.3       8 UNK         0.0270 
     31 CB        -73.0099   24.4634  -75.7440 C.3       8 UNK        -0.1976 
     32 N         -73.0062   26.6782  -76.8002 N.am      8 UNK        -0.4313 
     33 C         -72.5163   27.5942  -77.6483 C.2       8 UNK         0.5041 
     34 O         -71.3070   27.7298  -77.8545 O.2       8 UNK        -0.5577 
     35 CA        -73.5163   28.5219  -78.3665 C.3       7 UNK         0.0284 
     36 CB        -72.9214   29.1563  -79.6415 C.3       7 UNK        -0.1958 
     37 N         -74.8105   27.9030  -78.6699 N.am      7 UNK        -0.4454 
     38 C         -75.0713   26.8012  -79.3875 C.2       7 UNK         0.5089 
     39 O         -74.1991   26.0862  -79.8834 O.2       7 UNK        -0.5125 
     40 CA        -76.5663   26.4486  -79.5893 C.3       6 UNK         0.0408 
     41 CB        -76.7623   25.0596  -80.2243 C.3       6 UNK        -0.1791 
     42 N         -77.3596   26.5119  -78.3559 N.am      6 UNK        -0.4762 
     43 C         -77.7004   27.6245  -77.6853 C.2       6 UNK         0.5007 
     44 O         -77.4108   28.7557  -78.0786 O.2       6 UNK        -0.5032 
     45 CA        -78.4069   27.4524  -76.3191 C.3       5 UNK         0.0783 
     46 C46       -79.9474   27.6345  -76.4189 C.3       11 UNK        -0.0857 
     47 S47       -80.5133   29.2186  -77.1388 S.3       11 UNK        -0.2512 
     48 C48       -80.8431   30.2352  -75.6632 C.3       11 UNK         0.0225 
     49 N         -78.0727   26.1794  -75.6645 N.am      5 UNK        -0.4615 
     50 C         -76.8338   25.7635  -75.3470 C.2       4 UNK         0.5053 
     51 O         -75.8257   26.4553  -75.4988 O.2       4 UNK        -0.5105 
     52 CA        -76.6680   24.3168  -74.8362 C.3       4 UNK         0.0263 
     53 CB        -76.1203   24.2720  -73.3982 C.3       4 UNK        -0.1981 
     54 N         -77.8810   23.4979  -74.9390 N.am      4 UNK        -0.4224 
     55 C         -78.3852   23.0427  -76.0980 C.2       3 UNK         0.4895 
     56 O         -77.8568   23.2462  -77.1920 O.2       3 UNK        -0.5091 
     57 CA        -79.7175   22.2690  -76.0481 C.3       3 UNK         0.0250 
     58 CB        -79.4563   20.7545  -76.0384 C.3       3 UNK        -0.1996 
     59 N         -80.5788   22.6176  -74.9130 N.am      3 UNK        -0.4254 
     60 C         -81.0744   23.8383  -74.6651 C.2       2 UNK         0.5004 
     61 O         -80.8682   24.8133  -75.3866 O.2       2 UNK        -0.5226 
     62 CA        -81.8783   24.0347  -73.3645 C.3       2 UNK         0.0269 
     63 CB        -82.3367   22.7165  -72.6984 C.3       2 UNK        -0.1926 
     64 N         -81.1392   24.8677  -72.4039 N.am      2 UNK        -0.4687 
     65 C         -79.9034   24.6318  -71.9363 C.2       1 UNK         0.5165 
     66 O         -79.2293   23.6483  -72.2592 O.2       1 UNK        -0.5079 
     67 H67       -77.5112   23.9585  -67.2495 H         1 UNK         0.0900 
     68 H68       -77.4284   22.5942  -68.3682 H         1 UNK         0.0900 
     69 H69       -76.4714   24.0452  -68.6730 H         1 UNK         0.0900 
     70 H70       -77.3481   25.3091  -70.2975 H         1 UNK         0.2959 
     71 H71       -80.1065   26.0920  -70.3719 H         1 UNK         0.1079 
     72 H72       -79.4930   27.3662  -72.3733 H         1 UNK         0.0837 
     73 H73       -78.0042   26.5004  -72.5753 H         1 UNK         0.0837 
     74 H74       -78.2796   30.4165  -70.4934 H         1 UNK         0.0685 
     75 H75       -79.7357   29.5127  -70.8260 H         1 UNK         0.0685 
     76 H76       -80.6375   29.5835  -73.0304 H         1 UNK         0.1434 
     77 H77       -78.3561   31.1715  -76.2907 H         1 UNK         0.1329 
     78 H78       -76.5217   30.6163  -72.4485 H         1 UNK         0.1335 
     79 H79       -75.7195   32.4179  -74.5275 H         1 UNK         0.0680 
     80 H80       -76.0933   31.7023  -76.0697 H         1 UNK         0.0680 
     81 H81       -74.3687   31.5222  -72.7833 H         1 UNK         0.1032 
     82 H82       -73.0286   31.7782  -73.8524 H         1 UNK         0.1032 
     83 H83       -72.2737   30.5808  -71.9218 H         1 UNK         0.0461 
     84 H84       -74.1746   27.1229  -71.3301 H         1 UNK         0.3453 
     85 H85       -72.9740   27.2959  -72.5881 H         1 UNK         0.3453 
     86 H86       -72.1070   29.1593  -74.4535 H         1 UNK         0.2984 
     87 H87       -69.2779   28.8026  -74.6539 H         1 UNK         0.0554 
     88 H88       -68.0999   27.6828  -72.7899 H         1 UNK         0.0847 
     89 H89       -68.1746   26.6046  -74.1717 H         1 UNK         0.0847 
     90 H90       -69.2575   26.3603  -72.8019 H         1 UNK         0.0847 
     91 H91       -70.4706   27.5389  -76.0497 H         1 UNK         0.3141 
     92 H92       -71.3633   25.3838  -76.7304 H         1 UNK         0.0743 
     93 H93       -72.3867   23.6861  -75.3003 H         1 UNK         0.0784 
     94 H94       -73.7930   24.6958  -75.0271 H         1 UNK         0.0784 
     95 H95       -73.4763   24.0419  -76.6347 H         1 UNK         0.0784 
     96 H96       -74.0020   26.6649  -76.6007 H         1 UNK         0.3213 
     97 H97       -73.7272   29.3306  -77.6656 H         1 UNK         0.0855 
     98 H98       -72.6382   28.3984  -80.3728 H         1 UNK         0.0814 
     99 H99       -72.0277   29.7379  -79.4121 H         1 UNK         0.0814 
    100 H100      -73.6312   29.8333  -80.1168 H         1 UNK         0.0814 
    101 H101      -75.6274   28.4016  -78.3216 H         1 UNK         0.3105 
    102 H102      -76.9693   27.1879  -80.2843 H         1 UNK         0.0547 
    103 H103      -77.8162   24.8517  -80.4098 H         1 UNK         0.0837 
    104 H104      -76.3725   24.2671  -79.5840 H         1 UNK         0.0837 
    105 H105      -76.2482   24.9885  -81.1837 H         1 UNK         0.0837 
    106 H106      -77.5974   25.6213  -77.9382 H         1 UNK         0.3020 
    107 H107      -78.0071   28.2329  -75.6708 H         1 UNK         0.1245 
    108 H108      -80.3974   27.5242  -75.4309 H         1 UNK         0.0781 
    109 H109      -80.3730   26.8359  -77.0289 H         1 UNK         0.0781 
    110 H110      -81.6894   29.8061  -75.1244 H         1 UNK         0.0836 
    111 H111      -81.1552   31.2304  -75.9824 H         1 UNK         0.0836 
    112 H112      -78.8511   25.5461  -75.5201 H         1 UNK         0.3022 
    113 H113      -75.9177   23.8579  -75.4825 H         1 UNK         0.0747 
    114 H114      -75.2669   24.9395  -73.2718 H         1 UNK         0.0793 
    115 H115      -76.8633   24.5678  -72.6632 H         1 UNK         0.0793 
    116 H116      -75.7850   23.2677  -73.1393 H         1 UNK         0.0793 
    117 H117      -78.3880   23.3230  -74.0757 H         1 UNK         0.3047 
    118 H118      -80.2651   22.5159  -76.9601 H         1 UNK         0.0822 
    119 H119      -80.3865   20.1898  -76.1052 H         1 UNK         0.0807 
    120 H120      -78.9353   20.4405  -75.1329 H         1 UNK         0.0807 
    121 H121      -78.8392   20.4592  -76.8884 H         1 UNK         0.0807 
    122 H122      -80.7636   21.8859  -74.2421 H         1 UNK         0.2946 
    123 H123      -82.7735   24.5914  -73.6473 H         1 UNK         0.1144 
    124 H124      -82.9845   22.9190  -71.8454 H         1 UNK         0.0793 
    125 H125      -81.5005   22.1180  -72.3352 H         1 UNK         0.0793 
    126 H126      -82.9111   22.1019  -73.3930 H         1 UNK         0.0793 
    127 H127      -81.6086   25.7162  -72.1186 H         1 UNK         0.2896 
@<TRIPOS>BOND
     1    1    2 1    
     2    1   67 1    
     3    1   68 1    
     4    1   69 1    
     5    2    3 2    
     6    2    4 am   BACKBONE|DICT|INTERRES
     7    4    5 1    
     8    4   70 1    
     9    5    6 1    
    10    5   65 1    
    11    5   71 1    
    12    6    7 1    
    13    6   72 1    
    14    6   73 1    
    15    7    8 1    
    16    8    9 1    
    17    8   74 1    
    18    8   75 1    
    19    9   10 ar   
    20    9   14 ar   
    21   10   11 ar   
    22   10   76 1    
    23   11   12 ar   
    24   11   48 1    
    25   12   13 ar   
    26   12   77 1    
    27   13   14 ar   
    28   13   15 1    
    29   14   78 1    
    30   15   16 1    
    31   15   79 1    
    32   15   80 1    
    33   16   17 1    
    34   17   18 1    
    35   17   81 1    
    36   17   82 1    
    37   18   19 1    
    38   18   22 1    
    39   18   83 1    
    40   19   20 am   BACKBONE|DICT|INTERRES
    41   19   21 2    
    42   20   84 1    
    43   20   85 1    
    44   22   23 am   BACKBONE|DICT|INTERRES
    45   22   86 1    
    46   23   24 2    
    47   23   25 1    
    48   25   26 1    
    49   25   27 1    
    50   25   87 1    
    51   26   88 1    
    52   26   89 1    
    53   26   90 1    
    54   27   28 am   BACKBONE|DICT|INTERRES
    55   27   91 1    
    56   28   29 2    
    57   28   30 1    
    58   30   31 1    
    59   30   32 1    
    60   30   92 1    
    61   31   93 1    
    62   31   94 1    
    63   31   95 1    
    64   32   33 am   BACKBONE|DICT|INTERRES
    65   32   96 1    
    66   33   34 2    
    67   33   35 1    
    68   35   36 1    
    69   35   37 1    
    70   35   97 1    
    71   36   98 1    
    72   36   99 1    
    73   36  100 1    
    74   37   38 am   BACKBONE|DICT|INTERRES
    75   37  101 1    
    76   38   39 2    
    77   38   40 1    
    78   40   41 1    
    79   40   42 1    
    80   40  102 1    
    81   41  103 1    
    82   41  104 1    
    83   41  105 1    
    84   42   43 am   BACKBONE|DICT|INTERRES
    85   42  106 1    
    86   43   44 2    
    87   43   45 1    
    88   45   46 1    
    89   45   49 1    
    90   45  107 1    
    91   46   47 1    
    92   46  108 1    
    93   46  109 1    
    94   47   48 1    
    95   48  110 1    
    96   48  111 1    
    97   49   50 am   BACKBONE|DICT|INTERRES
    98   49  112 1    
    99   50   51 2    
   100   50   52 1    
   101   52   53 1    
   102   52   54 1    
   103   52  113 1    
   104   53  114 1    
   105   53  115 1    
   106   53  116 1    
   107   54   55 am   BACKBONE|DICT|INTERRES
   108   54  117 1    
   109   55   56 2    
   110   55   57 1    
   111   57   58 1    
   112   57   59 1    
   113   57  118 1    
   114   58  119 1    
   115   58  120 1    
   116   58  121 1    
   117   59   60 am   BACKBONE|DICT|INTERRES
   118   59  122 1    
   119   60   61 2    
   120   60   62 1    
   121   62   63 1    
   122   62   64 1    
   123   62  123 1    
   124   63  124 1    
   125   63  125 1    
   126   63  126 1    
   127   64   65 am   BACKBONE|DICT|INTERRES
   128   64  127 1    
   129   65   66 2    
@<TRIPOS>SUBSTRUCTURE
     1 UNK         1 GROUP             0       ****    0 ROOT    
