@<TRIPOS>MOLECULE
3R135
127   129    1
SMALL
USER_CHARGES


@<TRIPOS>ATOM
      1 CA        -83.2537   23.5350  -73.1094 C.3       0 UNK        -0.1998 
      2 C         -83.1033   24.9751  -73.5752 C.2       0 UNK         0.4909 
      3 O         -83.9167   25.4520  -74.3678 O.2       0 UNK        -0.5240 
      4 N         -82.0673   25.6738  -73.0924 N.am      1 UNK        -0.4739 
      5 CA        -81.7203   27.0439  -73.4818 C.3       1 UNK         0.0864 
      6 C6        -80.8987   27.7429  -72.3695 C.3       11 UNK        -0.0881 
      7 S7        -81.0130   29.5625  -72.4429 S.3       11 UNK        -0.2682 
      8 C8        -80.4737   30.0239  -70.7622 C.3       11 UNK         0.0289 
      9 C9        -78.9885   29.7596  -70.5624 C.ar      11 UNK        -0.0687 
     10 C10       -78.5525   28.5079  -70.1162 C.ar      11 UNK        -0.0823 
     11 C11       -77.1875   28.2259  -70.0239 C.ar      11 UNK        -0.0830 
     12 C12       -76.2577   29.2299  -70.3042 C.ar      11 UNK        -0.1021 
     13 C13       -76.6798   30.4870  -70.7411 C.ar      11 UNK        -0.0753 
     14 C14       -78.0475   30.7492  -70.8680 C.ar      11 UNK        -0.0933 
     15 C15       -75.6465   31.5350  -71.1173 C.3       11 UNK         0.0166 
     16 S16       -75.0890   31.3023  -72.8383 S.3       11 UNK        -0.2615 
     17 C17       -73.2797   31.5266  -72.6853 C.3       11 UNK        -0.0865 
     18 CA        -72.4601   30.2230  -72.8961 C.3       10 UNK         0.0862 
     19 C         -72.6914   29.1559  -71.7905 C.2       10 UNK         0.5551 
     20 N         -73.0668   27.9241  -72.1138 N.am      10 UNK        -0.7319 
     21 O         -72.4959   29.4449  -70.6128 O.2       10 UNK        -0.5018 
     22 N         -72.5579   29.7063  -74.2705 N.am      10 UNK        -0.4509 
     23 C         -71.8128   30.1380  -75.2943 C.2       10 UNK         0.4899 
     24 O         -70.9982   31.0594  -75.2088 O.2       10 UNK        -0.4839 
     25 CA        -72.0094   29.4051  -76.6339 C.3       9 UNK         0.0222 
     26 CB        -71.0318   29.8701  -77.7339 C.3       9 UNK        -0.1966 
     27 N         -71.9714   27.9465  -76.4867 N.am      9 UNK        -0.4218 
     28 C         -70.9677   27.1812  -76.0298 C.2       9 UNK         0.5020 
     29 O         -69.8702   27.6187  -75.6816 O.2       9 UNK        -0.5274 
     30 CA        -71.2257   25.6632  -75.9295 C.3       8 UNK         0.0270 
     31 CB        -71.3659   25.2408  -74.4574 C.3       8 UNK        -0.1976 
     32 N         -72.4125   25.2169  -76.6665 N.am      8 UNK        -0.4313 
     33 C         -72.4975   25.1209  -78.0011 C.2       8 UNK         0.5041 
     34 O         -71.5461   25.2962  -78.7630 O.2       8 UNK        -0.5577 
     35 CA        -73.8928   24.8335  -78.5858 C.3       7 UNK         0.0284 
     36 CB        -74.1993   23.3281  -78.5632 C.3       7 UNK        -0.1958 
     37 N         -74.9541   25.5709  -77.8909 N.am      7 UNK        -0.4454 
     38 C         -75.0614   26.9079  -77.8724 C.2       7 UNK         0.5089 
     39 O         -74.3220   27.6621  -78.5023 O.2       7 UNK        -0.5125 
     40 CA        -76.1319   27.5153  -76.9549 C.3       6 UNK         0.0408 
     41 CB        -77.4830   27.6157  -77.6773 C.3       6 UNK        -0.1791 
     42 N         -76.2899   26.7585  -75.7141 N.am      6 UNK        -0.4762 
     43 C         -75.4120   26.7552  -74.7010 C.2       6 UNK         0.5007 
     44 O         -74.3711   27.4166  -74.6832 O.2       6 UNK        -0.5032 
     45 CA        -75.7528   25.8391  -73.5084 C.3       5 UNK         0.0783 
     46 C46       -76.7760   26.5496  -72.5986 C.3       11 UNK        -0.0857 
     47 S47       -77.1660   25.6365  -71.0612 S.3       11 UNK        -0.2512 
     48 C48       -76.7079   26.8103  -69.7326 C.3       11 UNK         0.0225 
     49 N         -76.2181   24.5186  -73.9433 N.am      5 UNK        -0.4615 
     50 C         -75.4843   23.6467  -74.6470 C.2       4 UNK         0.5053 
     51 O         -74.3202   23.8522  -74.9882 O.2       4 UNK        -0.5105 
     52 CA        -76.1783   22.3456  -75.0852 C.3       4 UNK         0.0263 
     53 CB        -76.0678   21.2830  -73.9807 C.3       4 UNK        -0.1981 
     54 N         -77.5861   22.5100  -75.4686 N.am      4 UNK        -0.4224 
     55 C         -78.0464   23.3456  -76.4116 C.2       3 UNK         0.4895 
     56 O         -77.3258   24.1221  -77.0418 O.2       3 UNK        -0.5091 
     57 CA        -79.5557   23.3331  -76.6984 C.3       3 UNK         0.0250 
     58 CB        -80.3983   22.5216  -75.6897 C.3       3 UNK        -0.1996 
     59 N         -80.0304   24.7118  -76.7280 N.am      3 UNK        -0.4254 
     60 C         -80.9755   25.2088  -77.5305 C.2       2 UNK         0.5004 
     61 O         -81.5686   24.5458  -78.3837 O.2       2 UNK        -0.5226 
     62 CA        -81.3386   26.6916  -77.3023 C.3       2 UNK         0.0269 
     63 CB        -82.4235   27.1952  -78.2725 C.3       2 UNK        -0.1926 
     64 N         -81.7910   26.9208  -75.9267 N.am      2 UNK        -0.4687 
     65 C         -81.0018   27.0050  -74.8472 C.2       1 UNK         0.5165 
     66 O         -79.7705   26.9463  -74.9072 O.2       1 UNK        -0.5079 
     67 H67       -84.1981   23.4090  -72.5807 H         1 UNK         0.0900 
     68 H68       -82.4471   23.2357  -72.4404 H         1 UNK         0.0900 
     69 H69       -83.2504   22.8619  -73.9662 H         1 UNK         0.0900 
     70 H70       -81.4206   25.2236  -72.4602 H         1 UNK         0.2959 
     71 H71       -82.6504   27.6037  -73.6078 H         1 UNK         0.1079 
     72 H72       -79.8517   27.4378  -72.3844 H         1 UNK         0.0837 
     73 H73       -81.2826   27.4397  -71.3941 H         1 UNK         0.0837 
     74 H74       -81.0624   29.4807  -70.0213 H         1 UNK         0.0685 
     75 H75       -80.6863   31.0821  -70.6026 H         1 UNK         0.0685 
     76 H76       -79.2718   27.7286  -69.9063 H         1 UNK         0.1434 
     77 H77       -75.1999   29.0165  -70.2415 H         1 UNK         0.1329 
     78 H78       -78.3786   31.7128  -71.2307 H         1 UNK         0.1335 
     79 H79       -74.8066   31.4677  -70.4244 H         1 UNK         0.0680 
     80 H80       -76.0576   32.5394  -71.0051 H         1 UNK         0.0680 
     81 H81       -72.9746   32.2689  -73.4241 H         1 UNK         0.1032 
     82 H82       -73.0320   31.9748  -71.7219 H         1 UNK         0.1032 
     83 H83       -71.4135   30.4954  -72.7454 H         1 UNK         0.0461 
     84 H84       -73.1725   27.2447  -71.3786 H         1 UNK         0.3453 
     85 H85       -73.2834   27.6796  -73.0703 H         1 UNK         0.3453 
     86 H86       -73.2226   28.9542  -74.4247 H         1 UNK         0.2984 
     87 H87       -73.0186   29.6501  -76.9676 H         1 UNK         0.0554 
     88 H88       -71.2234   29.3549  -78.6752 H         1 UNK         0.0847 
     89 H89       -69.9927   29.6891  -77.4573 H         1 UNK         0.0847 
     90 H90       -71.1364   30.9391  -77.9229 H         1 UNK         0.0847 
     91 H91       -72.8305   27.4741  -76.7336 H         1 UNK         0.3141 
     92 H92       -70.3531   25.1576  -76.3479 H         1 UNK         0.0743 
     93 H93       -70.4904   25.5365  -73.8777 H         1 UNK         0.0784 
     94 H94       -72.2375   25.6977  -73.9886 H         1 UNK         0.0784 
     95 H95       -71.4664   24.1593  -74.3637 H         1 UNK         0.0784 
     96 H96       -73.2221   24.9561  -76.1075 H         1 UNK         0.3213 
     97 H97       -73.8912   25.1639  -79.6268 H         1 UNK         0.0855 
     98 H98       -74.1614   22.9230  -77.5528 H         1 UNK         0.0814 
     99 H99       -73.4722   22.7762  -79.1603 H         1 UNK         0.0814 
    100 H100      -75.1865   23.1156  -78.9742 H         1 UNK         0.0814 
    101 H101      -75.6571   25.0249  -77.3987 H         1 UNK         0.3105 
    102 H102      -75.8127   28.5273  -76.6960 H         1 UNK         0.0547 
    103 H103      -77.8741   26.6345  -77.9478 H         1 UNK         0.0837 
    104 H104      -78.2222   28.1165  -77.0523 H         1 UNK         0.0837 
    105 H105      -77.3909   28.1950  -78.5970 H         1 UNK         0.0837 
    106 H106      -77.0991   26.1572  -75.6516 H         1 UNK         0.3020 
    107 H107      -74.8319   25.6891  -72.9411 H         1 UNK         0.1245 
    108 H108      -77.7134   26.7117  -73.1325 H         1 UNK         0.0781 
    109 H109      -76.4003   27.5436  -72.3617 H         1 UNK         0.0781 
    110 H110      -77.1351   26.4681  -68.7890 H         1 UNK         0.0836 
    111 H111      -75.6245   26.7878  -69.6050 H         1 UNK         0.0836 
    112 H112      -77.1598   24.2656  -73.6841 H         1 UNK         0.3022 
    113 H113      -75.6484   21.9744  -75.9639 H         1 UNK         0.0747 
    114 H114      -75.0270   21.1270  -73.6926 H         1 UNK         0.0793 
    115 H115      -76.4559   20.3204  -74.3144 H         1 UNK         0.0793 
    116 H116      -76.6142   21.5737  -73.0825 H         1 UNK         0.0793 
    117 H117      -78.2515   21.9127  -74.9996 H         1 UNK         0.3047 
    118 H118      -79.6737   22.8884  -77.6888 H         1 UNK         0.0822 
    119 H119      -80.1161   21.4680  -75.6865 H         1 UNK         0.0807 
    120 H120      -81.4565   22.5594  -75.9497 H         1 UNK         0.0807 
    121 H121      -80.2987   22.9045  -74.6731 H         1 UNK         0.0807 
    122 H122      -79.6027   25.3488  -76.0630 H         1 UNK         0.2946 
    123 H123      -80.4362   27.2784  -77.4815 H         1 UNK         0.1144 
    124 H124      -83.3615   26.6529  -78.1465 H         1 UNK         0.0793 
    125 H125      -82.1095   27.0696  -79.3096 H         1 UNK         0.0793 
    126 H126      -82.6266   28.2559  -78.1239 H         1 UNK         0.0793 
    127 H127      -82.7882   26.8443  -75.7669 H         1 UNK         0.2896 
@<TRIPOS>BOND
     1    1    2 1    
     2    1   67 1    
     3    1   68 1    
     4    1   69 1    
     5    2    3 2    
     6    2    4 am   BACKBONE|DICT|INTERRES
     7    4    5 1    
     8    4   70 1    
     9    5    6 1    
    10    5   65 1    
    11    5   71 1    
    12    6    7 1    
    13    6   72 1    
    14    6   73 1    
    15    7    8 1    
    16    8    9 1    
    17    8   74 1    
    18    8   75 1    
    19    9   10 ar   
    20    9   14 ar   
    21   10   11 ar   
    22   10   76 1    
    23   11   12 ar   
    24   11   48 1    
    25   12   13 ar   
    26   12   77 1    
    27   13   14 ar   
    28   13   15 1    
    29   14   78 1    
    30   15   16 1    
    31   15   79 1    
    32   15   80 1    
    33   16   17 1    
    34   17   18 1    
    35   17   81 1    
    36   17   82 1    
    37   18   19 1    
    38   18   22 1    
    39   18   83 1    
    40   19   20 am   BACKBONE|DICT|INTERRES
    41   19   21 2    
    42   20   84 1    
    43   20   85 1    
    44   22   23 am   BACKBONE|DICT|INTERRES
    45   22   86 1    
    46   23   24 2    
    47   23   25 1    
    48   25   26 1    
    49   25   27 1    
    50   25   87 1    
    51   26   88 1    
    52   26   89 1    
    53   26   90 1    
    54   27   28 am   BACKBONE|DICT|INTERRES
    55   27   91 1    
    56   28   29 2    
    57   28   30 1    
    58   30   31 1    
    59   30   32 1    
    60   30   92 1    
    61   31   93 1    
    62   31   94 1    
    63   31   95 1    
    64   32   33 am   BACKBONE|DICT|INTERRES
    65   32   96 1    
    66   33   34 2    
    67   33   35 1    
    68   35   36 1    
    69   35   37 1    
    70   35   97 1    
    71   36   98 1    
    72   36   99 1    
    73   36  100 1    
    74   37   38 am   BACKBONE|DICT|INTERRES
    75   37  101 1    
    76   38   39 2    
    77   38   40 1    
    78   40   41 1    
    79   40   42 1    
    80   40  102 1    
    81   41  103 1    
    82   41  104 1    
    83   41  105 1    
    84   42   43 am   BACKBONE|DICT|INTERRES
    85   42  106 1    
    86   43   44 2    
    87   43   45 1    
    88   45   46 1    
    89   45   49 1    
    90   45  107 1    
    91   46   47 1    
    92   46  108 1    
    93   46  109 1    
    94   47   48 1    
    95   48  110 1    
    96   48  111 1    
    97   49   50 am   BACKBONE|DICT|INTERRES
    98   49  112 1    
    99   50   51 2    
   100   50   52 1    
   101   52   53 1    
   102   52   54 1    
   103   52  113 1    
   104   53  114 1    
   105   53  115 1    
   106   53  116 1    
   107   54   55 am   BACKBONE|DICT|INTERRES
   108   54  117 1    
   109   55   56 2    
   110   55   57 1    
   111   57   58 1    
   112   57   59 1    
   113   57  118 1    
   114   58  119 1    
   115   58  120 1    
   116   58  121 1    
   117   59   60 am   BACKBONE|DICT|INTERRES
   118   59  122 1    
   119   60   61 2    
   120   60   62 1    
   121   62   63 1    
   122   62   64 1    
   123   62  123 1    
   124   63  124 1    
   125   63  125 1    
   126   63  126 1    
   127   64   65 am   BACKBONE|DICT|INTERRES
   128   64  127 1    
   129   65   66 2    
@<TRIPOS>SUBSTRUCTURE
     1 UNK         1 GROUP             0       ****    0 ROOT    
