@<TRIPOS>MOLECULE
3R135
127   129    1
SMALL
USER_CHARGES


@<TRIPOS>ATOM
      1 CA        -82.2676   22.2078  -73.0491 C.3       0 UNK        -0.1998 
      2 C         -82.2316   23.7026  -73.3264 C.2       0 UNK         0.4909 
      3 O         -82.4864   24.1265  -74.4544 O.2       0 UNK        -0.5240 
      4 N         -81.9202   24.5064  -72.3011 N.am      1 UNK        -0.4739 
      5 CA        -81.8225   25.9669  -72.3915 C.3       1 UNK         0.0864 
      6 C6        -81.8163   26.6209  -70.9873 C.3       11 UNK        -0.0881 
      7 S7        -82.2768   28.3916  -71.0331 S.3       11 UNK        -0.2682 
      8 C8        -81.0515   29.1663  -69.9280 C.3       11 UNK         0.0289 
      9 C9        -79.6340   29.1259  -70.4850 C.ar      11 UNK        -0.0687 
     10 C10       -78.7491   28.1303  -70.0596 C.ar      11 UNK        -0.0823 
     11 C11       -77.4426   28.0944  -70.5455 C.ar      11 UNK        -0.0830 
     12 C12       -77.0073   29.0951  -71.4122 C.ar      11 UNK        -0.1021 
     13 C13       -77.8851   30.0652  -71.8963 C.ar      11 UNK        -0.0753 
     14 C14       -79.2002   30.0838  -71.4122 C.ar      11 UNK        -0.0933 
     15 C15       -77.4301   31.0759  -72.9508 C.3       11 UNK         0.0166 
     16 S16       -76.1893   30.4194  -74.1393 S.3       11 UNK        -0.2615 
     17 C17       -74.6433   31.2258  -73.5767 C.3       11 UNK        -0.0865 
     18 CA        -73.3720   30.3263  -73.5363 C.3       10 UNK         0.0862 
     19 C         -73.2935   29.3642  -72.3199 C.2       10 UNK         0.5551 
     20 N         -72.9307   28.0988  -72.4900 N.am      10 UNK        -0.7319 
     21 O         -73.5270   29.7824  -71.1892 O.2       10 UNK        -0.5018 
     22 N         -73.0434   29.7004  -74.8294 N.am      10 UNK        -0.4509 
     23 C         -72.2777   30.2764  -75.7651 C.2       10 UNK         0.4899 
     24 O         -71.8806   31.4415  -75.6962 O.2       10 UNK        -0.4839 
     25 CA        -71.8681   29.4023  -76.9695 C.3       9 UNK         0.0222 
     26 CB        -70.7526   30.0427  -77.8222 C.3       9 UNK        -0.1966 
     27 N         -71.4994   28.0270  -76.6067 N.am      9 UNK        -0.4218 
     28 C         -70.5715   27.6213  -75.7221 C.2       9 UNK         0.5020 
     29 O         -69.8547   28.3920  -75.0827 O.2       9 UNK        -0.5274 
     30 CA        -70.4133   26.1021  -75.5004 C.3       8 UNK         0.0270 
     31 CB        -70.4159   25.7444  -74.0029 C.3       8 UNK        -0.1976 
     32 N         -71.4755   25.3409  -76.1615 N.am      8 UNK        -0.4313 
     33 C         -71.3093   24.5079  -77.1985 C.2       8 UNK         0.5041 
     34 O         -70.2109   24.1991  -77.6622 O.2       8 UNK        -0.5577 
     35 CA        -72.5852   23.9409  -77.8562 C.3       7 UNK         0.0284 
     36 CB        -72.8950   22.5407  -77.3041 C.3       7 UNK        -0.1958 
     37 N         -73.7667   24.7959  -77.6926 N.am      7 UNK        -0.4454 
     38 C         -73.8648   26.0607  -78.1322 C.2       7 UNK         0.5089 
     39 O         -72.9966   26.6156  -78.8042 O.2       7 UNK        -0.5125 
     40 CA        -75.0845   26.8830  -77.6812 C.3       6 UNK         0.0408 
     41 CB        -76.1379   26.9032  -78.8001 C.3       6 UNK        -0.1791 
     42 N         -75.6892   26.4163  -76.4284 N.am      6 UNK        -0.4762 
     43 C         -75.0631   26.2727  -75.2495 C.2       6 UNK         0.5007 
     44 O         -73.9044   26.6524  -75.0543 O.2       6 UNK        -0.5032 
     45 CA        -75.8088   25.5244  -74.1193 C.3       5 UNK         0.0783 
     46 C46       -76.1653   26.4760  -72.9647 C.3       11 UNK        -0.0857 
     47 S47       -76.6584   25.6049  -71.4365 S.3       11 UNK        -0.2512 
     48 C48       -76.5123   26.9424  -70.2019 C.3       11 UNK         0.0225 
     49 N         -76.9890   24.7803  -74.5741 N.am      5 UNK        -0.4615 
     50 C         -76.9560   23.7018  -75.3671 C.2       4 UNK         0.5053 
     51 O         -75.9234   23.2472  -75.8610 O.2       4 UNK        -0.5105 
     52 CA        -78.3069   23.0464  -75.6809 C.3       4 UNK         0.0263 
     53 CB        -78.8387   22.2760  -74.4620 C.3       4 UNK        -0.1981 
     54 N         -79.2864   24.0480  -76.1044 N.am      4 UNK        -0.4224 
     55 C         -79.3780   24.5214  -77.3557 C.2       3 UNK         0.4895 
     56 O         -78.7114   24.0961  -78.2994 O.2       3 UNK        -0.5091 
     57 CA        -80.3647   25.6769  -77.6021 C.3       3 UNK         0.0250 
     58 CB        -81.7533   25.1343  -77.9751 C.3       3 UNK        -0.1996 
     59 N         -80.4848   26.5894  -76.4623 N.am      3 UNK        -0.4254 
     60 C         -79.4958   27.3782  -76.0154 C.2       2 UNK         0.5004 
     61 O         -78.3923   27.4472  -76.5460 O.2       2 UNK        -0.5226 
     62 CA        -79.7611   28.2064  -74.7485 C.3       2 UNK         0.0269 
     63 CB        -80.2219   29.6233  -75.1232 C.3       2 UNK        -0.1926 
     64 N         -80.7450   27.6013  -73.8506 N.am      2 UNK        -0.4687 
     65 C         -80.6221   26.4055  -73.2599 C.2       1 UNK         0.5165 
     66 O         -79.6448   25.6641  -73.4108 O.2       1 UNK        -0.5079 
     67 H67       -82.0439   21.6456  -73.9550 H         1 UNK         0.0900 
     68 H68       -81.5395   21.9266  -72.2885 H         1 UNK         0.0900 
     69 H69       -83.2589   21.9139  -72.7056 H         1 UNK         0.0900 
     70 H70       -81.6860   24.1015  -71.4061 H         1 UNK         0.2959 
     71 H71       -82.7285   26.2960  -72.9064 H         1 UNK         0.1079 
     72 H72       -80.8554   26.4707  -70.4976 H         1 UNK         0.0837 
     73 H73       -82.5504   26.1284  -70.3476 H         1 UNK         0.0837 
     74 H74       -81.3420   30.2045  -69.7608 H         1 UNK         0.0685 
     75 H75       -81.0934   28.6817  -68.9512 H         1 UNK         0.0685 
     76 H76       -79.0795   27.3701  -69.3655 H         1 UNK         0.1434 
     77 H77       -75.9906   29.0712  -71.7658 H         1 UNK         0.1329 
     78 H78       -79.8912   30.8393  -71.7599 H         1 UNK         0.1335 
     79 H79       -78.2930   31.4032  -73.5318 H         1 UNK         0.0680 
     80 H80       -77.0518   31.9677  -72.4510 H         1 UNK         0.0680 
     81 H81       -74.4578   32.0633  -74.2506 H         1 UNK         0.1032 
     82 H82       -74.7993   31.6821  -72.5979 H         1 UNK         0.1032 
     83 H83       -72.5499   31.0083  -73.3095 H         1 UNK         0.0461 
     84 H84       -72.7597   27.7206  -73.4078 H         1 UNK         0.3453 
     85 H85       -72.8527   27.5059  -71.6798 H         1 UNK         0.3453 
     86 H86       -73.3592   28.7471  -74.9601 H         1 UNK         0.2984 
     87 H87       -72.7548   29.3244  -77.5993 H         1 UNK         0.0554 
     88 H88       -70.5122   29.4255  -78.6879 H         1 UNK         0.0847 
     89 H89       -69.8371   30.1854  -77.2470 H         1 UNK         0.0847 
     90 H90       -71.0571   31.0200  -78.1988 H         1 UNK         0.0847 
     91 H91       -71.9888   27.3106  -77.1296 H         1 UNK         0.3141 
     92 H92       -69.4381   25.8323  -75.9106 H         1 UNK         0.0743 
     93 H93       -71.3736   25.9709  -73.5350 H         1 UNK         0.0784 
     94 H94       -70.2172   24.6830  -73.8535 H         1 UNK         0.0784 
     95 H95       -69.6457   26.2941  -73.4603 H         1 UNK         0.0784 
     96 H96       -72.4186   25.5443  -75.8438 H         1 UNK         0.3213 
     97 H97       -72.3879   23.8536  -78.9268 H         1 UNK         0.0855 
     98 H98       -73.1201   22.5689  -76.2370 H         1 UNK         0.0814 
     99 H99       -72.0465   21.8690  -77.4418 H         1 UNK         0.0814 
    100 H100      -73.7485   22.0924  -77.8132 H         1 UNK         0.0814 
    101 H101      -74.5315   24.4141  -77.1465 H         1 UNK         0.3105 
    102 H102      -74.7448   27.9065  -77.5146 H         1 UNK         0.0547 
    103 H103      -75.6877   27.1543  -79.7617 H         1 UNK         0.0837 
    104 H104      -76.6284   25.9356  -78.9119 H         1 UNK         0.0837 
    105 H105      -76.9056   27.6519  -78.6109 H         1 UNK         0.0837 
    106 H106      -76.6782   26.1981  -76.4691 H         1 UNK         0.3020 
    107 H107      -75.0938   24.7920  -73.7376 H         1 UNK         0.1245 
    108 H108      -76.9724   27.1417  -73.2719 H         1 UNK         0.0781 
    109 H109      -75.3153   27.1076  -72.7188 H         1 UNK         0.0781 
    110 H110      -75.4782   27.2883  -70.1555 H         1 UNK         0.0836 
    111 H111      -76.7493   26.5462  -69.2135 H         1 UNK         0.0836 
    112 H112      -77.8792   25.0806  -74.1868 H         1 UNK         0.3022 
    113 H113      -78.1515   22.3277  -76.4888 H         1 UNK         0.0747 
    114 H114      -79.7449   21.7264  -74.7134 H         1 UNK         0.0793 
    115 H115      -78.1068   21.5468  -74.1117 H         1 UNK         0.0793 
    116 H116      -79.0657   22.9383  -73.6254 H         1 UNK         0.0793 
    117 H117      -79.8506   24.4742  -75.3797 H         1 UNK         0.3047 
    118 H118      -79.9857   26.2532  -78.4492 H         1 UNK         0.0822 
    119 H119      -82.1968   24.5625  -77.1590 H         1 UNK         0.0807 
    120 H120      -81.6936   24.4732  -78.8408 H         1 UNK         0.0807 
    121 H121      -82.4396   25.9413  -78.2322 H         1 UNK         0.0807 
    122 H122      -81.3596   26.5817  -75.9578 H         1 UNK         0.2946 
    123 H123      -78.8185   28.2842  -74.2028 H         1 UNK         0.1144 
    124 H124      -80.3837   30.2371  -74.2375 H         1 UNK         0.0793 
    125 H125      -81.1503   29.6092  -75.6954 H         1 UNK         0.0793 
    126 H126      -79.4690   30.1264  -75.7319 H         1 UNK         0.0793 
    127 H127      -81.5629   28.1564  -73.6411 H         1 UNK         0.2896 
@<TRIPOS>BOND
     1    1    2 1    
     2    1   67 1    
     3    1   68 1    
     4    1   69 1    
     5    2    3 2    
     6    2    4 am   BACKBONE|DICT|INTERRES
     7    4    5 1    
     8    4   70 1    
     9    5    6 1    
    10    5   65 1    
    11    5   71 1    
    12    6    7 1    
    13    6   72 1    
    14    6   73 1    
    15    7    8 1    
    16    8    9 1    
    17    8   74 1    
    18    8   75 1    
    19    9   10 ar   
    20    9   14 ar   
    21   10   11 ar   
    22   10   76 1    
    23   11   12 ar   
    24   11   48 1    
    25   12   13 ar   
    26   12   77 1    
    27   13   14 ar   
    28   13   15 1    
    29   14   78 1    
    30   15   16 1    
    31   15   79 1    
    32   15   80 1    
    33   16   17 1    
    34   17   18 1    
    35   17   81 1    
    36   17   82 1    
    37   18   19 1    
    38   18   22 1    
    39   18   83 1    
    40   19   20 am   BACKBONE|DICT|INTERRES
    41   19   21 2    
    42   20   84 1    
    43   20   85 1    
    44   22   23 am   BACKBONE|DICT|INTERRES
    45   22   86 1    
    46   23   24 2    
    47   23   25 1    
    48   25   26 1    
    49   25   27 1    
    50   25   87 1    
    51   26   88 1    
    52   26   89 1    
    53   26   90 1    
    54   27   28 am   BACKBONE|DICT|INTERRES
    55   27   91 1    
    56   28   29 2    
    57   28   30 1    
    58   30   31 1    
    59   30   32 1    
    60   30   92 1    
    61   31   93 1    
    62   31   94 1    
    63   31   95 1    
    64   32   33 am   BACKBONE|DICT|INTERRES
    65   32   96 1    
    66   33   34 2    
    67   33   35 1    
    68   35   36 1    
    69   35   37 1    
    70   35   97 1    
    71   36   98 1    
    72   36   99 1    
    73   36  100 1    
    74   37   38 am   BACKBONE|DICT|INTERRES
    75   37  101 1    
    76   38   39 2    
    77   38   40 1    
    78   40   41 1    
    79   40   42 1    
    80   40  102 1    
    81   41  103 1    
    82   41  104 1    
    83   41  105 1    
    84   42   43 am   BACKBONE|DICT|INTERRES
    85   42  106 1    
    86   43   44 2    
    87   43   45 1    
    88   45   46 1    
    89   45   49 1    
    90   45  107 1    
    91   46   47 1    
    92   46  108 1    
    93   46  109 1    
    94   47   48 1    
    95   48  110 1    
    96   48  111 1    
    97   49   50 am   BACKBONE|DICT|INTERRES
    98   49  112 1    
    99   50   51 2    
   100   50   52 1    
   101   52   53 1    
   102   52   54 1    
   103   52  113 1    
   104   53  114 1    
   105   53  115 1    
   106   53  116 1    
   107   54   55 am   BACKBONE|DICT|INTERRES
   108   54  117 1    
   109   55   56 2    
   110   55   57 1    
   111   57   58 1    
   112   57   59 1    
   113   57  118 1    
   114   58  119 1    
   115   58  120 1    
   116   58  121 1    
   117   59   60 am   BACKBONE|DICT|INTERRES
   118   59  122 1    
   119   60   61 2    
   120   60   62 1    
   121   62   63 1    
   122   62   64 1    
   123   62  123 1    
   124   63  124 1    
   125   63  125 1    
   126   63  126 1    
   127   64   65 am   BACKBONE|DICT|INTERRES
   128   64  127 1    
   129   65   66 2    
@<TRIPOS>SUBSTRUCTURE
     1 UNK         1 GROUP             0       ****    0 ROOT    
