@<TRIPOS>MOLECULE
3R135
127   129    1
SMALL
USER_CHARGES


@<TRIPOS>ATOM
      1 CA        -85.1695   28.6552  -73.8833 C.3       0 UNK        -0.1998 
      2 C         -84.0658   27.6126  -73.7939 C.2       0 UNK         0.4909 
      3 O         -84.3530   26.4156  -73.8285 O.2       0 UNK        -0.5240 
      4 N         -82.8049   28.0581  -73.6945 N.am      1 UNK        -0.4739 
      5 CA        -81.5708   27.2634  -73.5835 C.3       1 UNK         0.0864 
      6 C6        -81.5646   26.3147  -72.3533 C.3       11 UNK        -0.0881 
      7 S7        -79.9037   25.7238  -71.8704 S.3       11 UNK        -0.2682 
      8 C8        -79.4628   26.8008  -70.4613 C.3       11 UNK         0.0289 
      9 C9        -78.3548   27.7754  -70.8363 C.ar      11 UNK        -0.0687 
     10 C10       -78.6486   28.9028  -71.6056 C.ar      11 UNK        -0.0823 
     11 C11       -77.6302   29.7571  -72.0363 C.ar      11 UNK        -0.0830 
     12 C12       -76.3160   29.5206  -71.6278 C.ar      11 UNK        -0.1021 
     13 C13       -76.0124   28.4194  -70.8229 C.ar      11 UNK        -0.0753 
     14 C14       -77.0338   27.5459  -70.4344 C.ar      11 UNK        -0.0933 
     15 C15       -74.5778   28.1858  -70.3798 C.3       11 UNK         0.0166 
     16 S16       -73.5709   27.4868  -71.7239 S.3       11 UNK        -0.2615 
     17 C17       -71.8986   27.8533  -71.0938 C.3       11 UNK        -0.0865 
     18 CA        -71.3483   29.1954  -71.6470 C.3       10 UNK         0.0862 
     19 C         -70.0550   29.6269  -70.8945 C.2       10 UNK         0.5551 
     20 N         -68.9185   29.7958  -71.5598 N.am      10 UNK        -0.7319 
     21 O         -70.0876   29.8204  -69.6818 O.2       10 UNK        -0.5018 
     22 N         -71.2153   29.1600  -73.1133 N.am      10 UNK        -0.4509 
     23 C         -71.2600   30.2272  -73.9221 C.2       10 UNK         0.4899 
     24 O         -71.4585   31.3753  -73.5235 O.2       10 UNK        -0.4839 
     25 CA        -71.0179   29.9916  -75.4279 C.3       9 UNK         0.0222 
     26 CB        -69.7386   30.7126  -75.8880 C.3       9 UNK        -0.1966 
     27 N         -70.9145   28.5721  -75.7856 N.am      9 UNK        -0.4218 
     28 C         -71.9580   27.7574  -75.9872 C.2       9 UNK         0.5020 
     29 O         -73.1315   28.1286  -75.9662 O.2       9 UNK        -0.5274 
     30 CA        -71.6103   26.2806  -76.2116 C.3       8 UNK         0.0270 
     31 CB        -71.1453   25.6230  -74.8975 C.3       8 UNK        -0.1976 
     32 N         -72.7666   25.5452  -76.7205 N.am      8 UNK        -0.4313 
     33 C         -72.7013   24.5427  -77.6050 C.2       8 UNK         0.5041 
     34 O         -71.6543   24.1729  -78.1401 O.2       8 UNK        -0.5577 
     35 CA        -74.0030   23.7950  -77.9409 C.3       7 UNK         0.0284 
     36 CB        -74.2344   22.6527  -76.9391 C.3       7 UNK        -0.1958 
     37 N         -75.1912   24.6476  -77.9870 N.am      7 UNK        -0.4454 
     38 C         -75.4470   25.5468  -78.9476 C.2       7 UNK         0.5089 
     39 O         -74.6872   25.7858  -79.8868 O.2       7 UNK        -0.5125 
     40 CA        -76.7844   26.2977  -78.8506 C.3       6 UNK         0.0408 
     41 CB        -77.9327   25.4416  -79.4057 C.3       6 UNK        -0.1791 
     42 N         -77.0736   26.6770  -77.4685 N.am      6 UNK        -0.4762 
     43 C         -76.5853   27.7780  -76.8784 C.2       6 UNK         0.5007 
     44 O         -75.9712   28.6548  -77.4875 O.2       6 UNK        -0.5032 
     45 CA        -76.8305   27.9352  -75.3620 C.3       5 UNK         0.0783 
     46 C46       -77.9644   28.9639  -75.0840 C.3       11 UNK        -0.0857 
     47 S47       -77.3080   30.6182  -74.6654 S.3       11 UNK        -0.2512 
     48 C48       -77.9486   30.9081  -72.9794 C.3       11 UNK         0.0225 
     49 N         -77.0563   26.6428  -74.6932 N.am      5 UNK        -0.4615 
     50 C         -76.0837   25.7417  -74.4855 C.2       4 UNK         0.5053 
     51 O         -74.9249   25.8941  -74.8637 O.2       4 UNK        -0.5105 
     52 CA        -76.4434   24.4198  -73.7894 C.3       4 UNK         0.0263 
     53 CB        -76.3128   24.5416  -72.2653 C.3       4 UNK        -0.1981 
     54 N         -77.7532   23.8660  -74.1366 N.am      4 UNK        -0.4224 
     55 C         -78.1095   23.4671  -75.3654 C.2       3 UNK         0.4895 
     56 O         -77.4384   23.6900  -76.3739 O.2       3 UNK        -0.5091 
     57 CA        -79.4169   22.6639  -75.4829 C.3       3 UNK         0.0250 
     58 CB        -79.6962   21.7738  -74.2551 C.3       3 UNK        -0.1996 
     59 N         -80.5407   23.5699  -75.6831 N.am      3 UNK        -0.4254 
     60 C         -80.9272   24.0717  -76.8626 C.2       2 UNK         0.5004 
     61 O         -80.4862   23.6956  -77.9485 O.2       2 UNK        -0.5226 
     62 CA        -81.9897   25.1876  -76.8325 C.3       2 UNK         0.0269 
     63 CB        -83.3604   24.6401  -77.2622 C.3       2 UNK        -0.1926 
     64 N         -82.1359   25.8693  -75.5394 N.am      2 UNK        -0.4687 
     65 C         -81.1793   26.5515  -74.8962 C.2       1 UNK         0.5165 
     66 O         -80.0225   26.6392  -75.3068 O.2       1 UNK        -0.5079 
     67 H67       -84.7769   29.6710  -73.8414 H         1 UNK         0.0900 
     68 H68       -85.7176   28.5414  -74.8182 H         1 UNK         0.0900 
     69 H69       -85.8712   28.5289  -73.0593 H         1 UNK         0.0900 
     70 H70       -82.6551   29.0579  -73.7101 H         1 UNK         0.2959 
     71 H71       -80.7921   28.0060  -73.4251 H         1 UNK         0.1079 
     72 H72       -82.0228   26.8138  -71.4988 H         1 UNK         0.0837 
     73 H73       -82.1907   25.4406  -72.5408 H         1 UNK         0.0837 
     74 H74       -79.1415   26.1687  -69.6322 H         1 UNK         0.0685 
     75 H75       -80.3314   27.3514  -70.0990 H         1 UNK         0.0685 
     76 H76       -79.6689   29.0952  -71.8998 H         1 UNK         0.1434 
     77 H77       -75.5241   30.1802  -71.9565 H         1 UNK         0.1329 
     78 H78       -76.7979   26.6812  -69.8294 H         1 UNK         0.1335 
     79 H79       -74.1483   29.1350  -70.0554 H         1 UNK         0.0680 
     80 H80       -74.5413   27.5181  -69.5176 H         1 UNK         0.0680 
     81 H81       -71.9303   27.8604  -70.0023 H         1 UNK         0.1032 
     82 H82       -71.2365   27.0293  -71.3655 H         1 UNK         0.1032 
     83 H83       -72.0845   29.9649  -71.4061 H         1 UNK         0.0461 
     84 H84       -68.0906   30.0797  -71.0600 H         1 UNK         0.3453 
     85 H85       -68.8824   29.6467  -72.5547 H         1 UNK         0.3453 
     86 H86       -71.0681   28.2517  -73.5237 H         1 UNK         0.2984 
     87 H87       -71.8628   30.4302  -75.9631 H         1 UNK         0.0554 
     88 H88       -69.7950   31.7821  -75.6801 H         1 UNK         0.0847 
     89 H89       -69.5860   30.6038  -76.9619 H         1 UNK         0.0847 
     90 H90       -68.8517   30.3300  -75.3816 H         1 UNK         0.0847 
     91 H91       -69.9815   28.1867  -75.8340 H         1 UNK         0.3141 
     92 H92       -70.7986   26.2442  -76.9415 H         1 UNK         0.0743 
     93 H93       -71.9223   25.6694  -74.1323 H         1 UNK         0.0784 
     94 H94       -70.8913   24.5737  -75.0491 H         1 UNK         0.0784 
     95 H95       -70.2569   26.1112  -74.4959 H         1 UNK         0.0784 
     96 H96       -73.6583   25.8066  -76.3000 H         1 UNK         0.3213 
     97 H97       -73.8777   23.3512  -78.9311 H         1 UNK         0.0855 
     98 H98       -74.3546   23.0292  -75.9235 H         1 UNK         0.0814 
     99 H99       -73.3893   21.9629  -76.9324 H         1 UNK         0.0814 
    100 H100      -75.1237   22.0747  -77.1912 H         1 UNK         0.0814 
    101 H101      -75.9060   24.4727  -77.2859 H         1 UNK         0.3105 
    102 H102      -76.7152   27.1974  -79.4660 H         1 UNK         0.0547 
    103 H103      -77.7629   25.1976  -80.4550 H         1 UNK         0.0837 
    104 H104      -78.0354   24.4990  -78.8673 H         1 UNK         0.0837 
    105 H105      -78.8866   25.9655  -79.3441 H         1 UNK         0.0837 
    106 H106      -77.5662   26.0012  -76.8980 H         1 UNK         0.3020 
    107 H107      -75.8964   28.3265  -74.9488 H         1 UNK         0.1245 
    108 H108      -78.5973   28.6193  -74.2702 H         1 UNK         0.0781 
    109 H109      -78.6461   29.0653  -75.9312 H         1 UNK         0.0781 
    110 H110      -79.0249   31.0783  -73.0350 H         1 UNK         0.0836 
    111 H111      -77.5143   31.8288  -72.5874 H         1 UNK         0.0836 
    112 H112      -78.0094   26.4299  -74.4261 H         1 UNK         0.3022 
    113 H113      -75.7024   23.6867  -74.1124 H         1 UNK         0.0747 
    114 H114      -76.4151   23.5727  -71.7767 H         1 UNK         0.0793 
    115 H115      -75.3379   24.9441  -71.9869 H         1 UNK         0.0793 
    116 H116      -77.0677   25.2068  -71.8540 H         1 UNK         0.0793 
    117 H117      -78.3814   23.6831  -73.3678 H         1 UNK         0.3047 
    118 H118      -79.3165   22.0094  -76.3516 H         1 UNK         0.0822 
    119 H119      -80.5444   21.1143  -74.4400 H         1 UNK         0.0807 
    120 H120      -79.9240   22.3538  -73.3600 H         1 UNK         0.0807 
    121 H121      -78.8401   21.1360  -74.0295 H         1 UNK         0.0807 
    122 H122      -80.9643   23.9598  -74.8543 H         1 UNK         0.2946 
    123 H123      -81.6734   25.9373  -77.5612 H         1 UNK         0.1144 
    124 H124      -84.0982   25.4383  -77.3464 H         1 UNK         0.0793 
    125 H125      -83.7403   23.9051  -76.5515 H         1 UNK         0.0793 
    126 H126      -83.3004   24.1525  -78.2364 H         1 UNK         0.0793 
    127 H127      -83.0571   25.8581  -75.1084 H         1 UNK         0.2896 
@<TRIPOS>BOND
     1    1    2 1    
     2    1   67 1    
     3    1   68 1    
     4    1   69 1    
     5    2    3 2    
     6    2    4 am   BACKBONE|DICT|INTERRES
     7    4    5 1    
     8    4   70 1    
     9    5    6 1    
    10    5   65 1    
    11    5   71 1    
    12    6    7 1    
    13    6   72 1    
    14    6   73 1    
    15    7    8 1    
    16    8    9 1    
    17    8   74 1    
    18    8   75 1    
    19    9   10 ar   
    20    9   14 ar   
    21   10   11 ar   
    22   10   76 1    
    23   11   12 ar   
    24   11   48 1    
    25   12   13 ar   
    26   12   77 1    
    27   13   14 ar   
    28   13   15 1    
    29   14   78 1    
    30   15   16 1    
    31   15   79 1    
    32   15   80 1    
    33   16   17 1    
    34   17   18 1    
    35   17   81 1    
    36   17   82 1    
    37   18   19 1    
    38   18   22 1    
    39   18   83 1    
    40   19   20 am   BACKBONE|DICT|INTERRES
    41   19   21 2    
    42   20   84 1    
    43   20   85 1    
    44   22   23 am   BACKBONE|DICT|INTERRES
    45   22   86 1    
    46   23   24 2    
    47   23   25 1    
    48   25   26 1    
    49   25   27 1    
    50   25   87 1    
    51   26   88 1    
    52   26   89 1    
    53   26   90 1    
    54   27   28 am   BACKBONE|DICT|INTERRES
    55   27   91 1    
    56   28   29 2    
    57   28   30 1    
    58   30   31 1    
    59   30   32 1    
    60   30   92 1    
    61   31   93 1    
    62   31   94 1    
    63   31   95 1    
    64   32   33 am   BACKBONE|DICT|INTERRES
    65   32   96 1    
    66   33   34 2    
    67   33   35 1    
    68   35   36 1    
    69   35   37 1    
    70   35   97 1    
    71   36   98 1    
    72   36   99 1    
    73   36  100 1    
    74   37   38 am   BACKBONE|DICT|INTERRES
    75   37  101 1    
    76   38   39 2    
    77   38   40 1    
    78   40   41 1    
    79   40   42 1    
    80   40  102 1    
    81   41  103 1    
    82   41  104 1    
    83   41  105 1    
    84   42   43 am   BACKBONE|DICT|INTERRES
    85   42  106 1    
    86   43   44 2    
    87   43   45 1    
    88   45   46 1    
    89   45   49 1    
    90   45  107 1    
    91   46   47 1    
    92   46  108 1    
    93   46  109 1    
    94   47   48 1    
    95   48  110 1    
    96   48  111 1    
    97   49   50 am   BACKBONE|DICT|INTERRES
    98   49  112 1    
    99   50   51 2    
   100   50   52 1    
   101   52   53 1    
   102   52   54 1    
   103   52  113 1    
   104   53  114 1    
   105   53  115 1    
   106   53  116 1    
   107   54   55 am   BACKBONE|DICT|INTERRES
   108   54  117 1    
   109   55   56 2    
   110   55   57 1    
   111   57   58 1    
   112   57   59 1    
   113   57  118 1    
   114   58  119 1    
   115   58  120 1    
   116   58  121 1    
   117   59   60 am   BACKBONE|DICT|INTERRES
   118   59  122 1    
   119   60   61 2    
   120   60   62 1    
   121   62   63 1    
   122   62   64 1    
   123   62  123 1    
   124   63  124 1    
   125   63  125 1    
   126   63  126 1    
   127   64   65 am   BACKBONE|DICT|INTERRES
   128   64  127 1    
   129   65   66 2    
@<TRIPOS>SUBSTRUCTURE
     1 UNK         1 GROUP             0       ****    0 ROOT    
