@<TRIPOS>MOLECULE
3R135
127   129    1
SMALL
USER_CHARGES


@<TRIPOS>ATOM
      1 CA        -78.3943   30.5558  -74.9204 C.3       0 UNK        -0.1998 
      2 C         -78.6664   29.1838  -74.3219 C.2       0 UNK         0.4909 
      3 O         -77.9174   28.2452  -74.5834 O.2       0 UNK        -0.5240 
      4 N         -79.7376   29.0622  -73.5266 N.am      1 UNK        -0.4739 
      5 CA        -80.1112   27.8361  -72.8050 C.3       1 UNK         0.0864 
      6 C6        -81.0869   28.1199  -71.6299 C.3       11 UNK        -0.0881 
      7 S7        -80.5929   29.5145  -70.5560 S.3       11 UNK        -0.2682 
      8 C8        -79.6574   28.6809  -69.2350 C.3       11 UNK         0.0289 
      9 C9        -78.3160   28.1679  -69.7358 C.ar      11 UNK        -0.0687 
     10 C10       -78.0946   26.7968  -69.8872 C.ar      11 UNK        -0.0823 
     11 C11       -76.8747   26.3254  -70.3824 C.ar      11 UNK        -0.0830 
     12 C12       -75.8631   27.2363  -70.7065 C.ar      11 UNK        -0.1021 
     13 C13       -76.0680   28.6093  -70.5412 C.ar      11 UNK        -0.0753 
     14 C14       -77.2958   29.0683  -70.0558 C.ar      11 UNK        -0.0933 
     15 C15       -74.9660   29.6033  -70.8713 C.3       11 UNK         0.0166 
     16 S16       -75.1218   30.2308  -72.5716 S.3       11 UNK        -0.2615 
     17 C17       -74.2996   31.8487  -72.3950 C.3       11 UNK        -0.0865 
     18 CA        -73.7634   32.4176  -73.7343 C.3       10 UNK         0.0862 
     19 C         -73.3171   33.8989  -73.5440 C.2       10 UNK         0.5551 
     20 N         -72.0302   34.2209  -73.6018 N.am      10 UNK        -0.7319 
     21 O         -74.1588   34.7701  -73.3396 O.2       10 UNK        -0.5018 
     22 N         -72.7489   31.5334  -74.3360 N.am      10 UNK        -0.4509 
     23 C         -72.2848   31.6390  -75.5893 C.2       10 UNK         0.4899 
     24 O         -72.6918   32.4655  -76.4062 O.2       10 UNK        -0.4839 
     25 CA        -71.1624   30.6711  -76.0034 C.3       9 UNK         0.0222 
     26 CB        -69.7864   31.3074  -75.7460 C.3       9 UNK        -0.1966 
     27 N         -71.2335   29.3743  -75.3237 N.am      9 UNK        -0.4218 
     28 C         -72.1236   28.4190  -75.6211 C.2       9 UNK         0.5020 
     29 O         -72.9833   28.5292  -76.4988 O.2       9 UNK        -0.5274 
     30 CA        -72.0488   27.1376  -74.7770 C.3       8 UNK         0.0270 
     31 CB        -73.0025   27.2271  -73.5728 C.3       8 UNK        -0.1976 
     32 N         -72.3893   25.9662  -75.5868 N.am      8 UNK        -0.4313 
     33 C         -71.5317   25.3487  -76.4138 C.2       8 UNK         0.5041 
     34 O         -70.3489   25.6762  -76.5272 O.2       8 UNK        -0.5577 
     35 CA        -72.0455   24.1528  -77.2421 C.3       7 UNK         0.0284 
     36 CB        -71.5928   22.8278  -76.6061 C.3       7 UNK        -0.1958 
     37 N         -73.4996   24.1285  -77.4034 N.am      7 UNK        -0.4454 
     38 C         -74.1967   24.9488  -78.2007 C.2       7 UNK         0.5089 
     39 O         -73.6746   25.7422  -78.9844 O.2       7 UNK        -0.5125 
     40 CA        -75.7365   24.8838  -78.1099 C.3       6 UNK         0.0408 
     41 CB        -76.3094   24.1490  -79.3320 C.3       6 UNK        -0.1791 
     42 N         -76.2815   24.2797  -76.8826 N.am      6 UNK        -0.4762 
     43 C         -76.0377   24.6999  -75.6292 C.2       6 UNK         0.5007 
     44 O         -75.2317   25.5931  -75.3744 O.2       6 UNK        -0.5032 
     45 CA        -76.7602   23.9919  -74.4654 C.3       5 UNK         0.0783 
     46 C46       -77.1525   24.9904  -73.3493 C.3       11 UNK        -0.0857 
     47 S47       -77.7618   24.1472  -71.8499 S.3       11 UNK        -0.2512 
     48 C48       -76.6586   24.8303  -70.5716 C.3       11 UNK         0.0225 
     49 N         -77.9248   23.2479  -74.9503 N.am      5 UNK        -0.4615 
     50 C         -78.0748   21.9190  -74.8887 C.2       4 UNK         0.5053 
     51 O         -77.2157   21.1531  -74.4513 O.2       4 UNK        -0.5105 
     52 CA        -79.4045   21.3307  -75.4003 C.3       4 UNK         0.0263 
     53 CB        -80.3407   21.0300  -74.2185 C.3       4 UNK        -0.1981 
     54 N         -80.1057   22.1941  -76.3536 N.am      4 UNK        -0.4224 
     55 C         -79.6542   22.5157  -77.5736 C.2       3 UNK         0.4895 
     56 O         -78.6196   22.0594  -78.0603 O.2       3 UNK        -0.5091 
     57 CA        -80.4678   23.5505  -78.3722 C.3       3 UNK         0.0250 
     58 CB        -81.4101   22.8421  -79.3585 C.3       3 UNK        -0.1996 
     59 N         -81.2429   24.4953  -77.5558 N.am      3 UNK        -0.4254 
     60 C         -80.7413   25.3297  -76.6322 C.2       2 UNK         0.5004 
     61 O         -79.5506   25.3473  -76.3131 O.2       2 UNK        -0.5226 
     62 CA        -81.7446   26.3111  -75.9908 C.3       2 UNK         0.0269 
     63 CB        -83.0272   25.6055  -75.4936 C.3       2 UNK        -0.1926 
     64 N         -81.1561   27.1373  -74.9266 N.am      2 UNK        -0.4687 
     65 C         -80.7025   26.7424  -73.7254 C.2       1 UNK         0.5165 
     66 O         -80.7665   25.5834  -73.3139 O.2       1 UNK        -0.5079 
     67 H67       -77.4015   30.8989  -74.6300 H         1 UNK         0.0900 
     68 H68       -79.1196   31.2980  -74.5874 H         1 UNK         0.0900 
     69 H69       -78.4322   30.5052  -76.0081 H         1 UNK         0.0900 
     70 H70       -80.3081   29.8719  -73.3273 H         1 UNK         0.2959 
     71 H71       -79.1935   27.4175  -72.3872 H         1 UNK         0.1079 
     72 H72       -82.0813   28.3542  -72.0153 H         1 UNK         0.0837 
     73 H73       -81.2098   27.2253  -71.0162 H         1 UNK         0.0837 
     74 H74       -79.4872   29.3901  -68.4237 H         1 UNK         0.0685 
     75 H75       -80.2578   27.8730  -68.8138 H         1 UNK         0.0685 
     76 H76       -78.8792   26.0929  -69.6444 H         1 UNK         0.1434 
     77 H77       -74.9172   26.8801  -71.0911 H         1 UNK         0.1329 
     78 H78       -77.4642   30.1302  -69.9391 H         1 UNK         0.1335 
     79 H79       -75.0100   30.4344  -70.1654 H         1 UNK         0.0680 
     80 H80       -73.9842   29.1444  -70.7453 H         1 UNK         0.0680 
     81 H81       -73.4852   31.7654  -71.6726 H         1 UNK         0.1032 
     82 H82       -75.0285   32.5308  -71.9518 H         1 UNK         0.1032 
     83 H83       -74.6022   32.4503  -74.4326 H         1 UNK         0.0461 
     84 H84       -71.7553   35.1828  -73.4793 H         1 UNK         0.3453 
     85 H85       -71.3337   33.5134  -73.7686 H         1 UNK         0.3453 
     86 H86       -72.3721   30.8152  -73.7369 H         1 UNK         0.2984 
     87 H87       -71.2561   30.4999  -77.0781 H         1 UNK         0.0554 
     88 H88       -68.9806   30.6736  -76.1168 H         1 UNK         0.0847 
     89 H89       -69.6118   31.4861  -74.6843 H         1 UNK         0.0847 
     90 H90       -69.6993   32.2679  -76.2564 H         1 UNK         0.0847 
     91 H91       -70.5568   29.2022  -74.5934 H         1 UNK         0.3141 
     92 H92       -71.0317   27.0166  -74.3975 H         1 UNK         0.0743 
     93 H93       -72.7053   28.0306  -72.8982 H         1 UNK         0.0784 
     94 H94       -74.0286   27.4317  -73.8825 H         1 UNK         0.0784 
     95 H95       -73.0052   26.3025  -72.9955 H         1 UNK         0.0784 
     96 H96       -73.3748   25.7114  -75.6027 H         1 UNK         0.3213 
     97 H97       -71.5928   24.2266  -78.2335 H         1 UNK         0.0855 
     98 H98       -70.5072   22.7963  -76.5023 H         1 UNK         0.0814 
     99 H99       -71.8820   21.9733  -77.2182 H         1 UNK         0.0814 
    100 H100      -72.0185   22.6904  -75.6113 H         1 UNK         0.0814 
    101 H101      -74.0182   23.5039  -76.8039 H         1 UNK         0.3105 
    102 H102      -76.0936   25.9152  -78.1393 H         1 UNK         0.0547 
    103 H103      -75.9172   24.5637  -80.2618 H         1 UNK         0.0837 
    104 H104      -76.0611   23.0870  -79.3174 H         1 UNK         0.0837 
    105 H105      -77.3936   24.2400  -79.3761 H         1 UNK         0.0837 
    106 H106      -76.9464   23.5274  -77.0087 H         1 UNK         0.3020 
    107 H107      -76.0219   23.3041  -74.0476 H         1 UNK         0.1245 
    108 H108      -77.9265   25.6703  -73.7059 H         1 UNK         0.0781 
    109 H109      -76.3053   25.6212  -73.0761 H         1 UNK         0.0781 
    110 H110      -75.6223   24.6113  -70.8343 H         1 UNK         0.0836 
    111 H111      -76.8506   24.3186  -69.6276 H         1 UNK         0.0836 
    112 H112      -78.6638   23.8211  -75.3483 H         1 UNK         0.3022 
    113 H113      -79.1734   20.3907  -75.9059 H         1 UNK         0.0747 
    114 H114      -81.2583   20.5436  -74.5501 H         1 UNK         0.0793 
    115 H115      -79.8619   20.3609  -73.5019 H         1 UNK         0.0793 
    116 H116      -80.6146   21.9393  -73.6810 H         1 UNK         0.0793 
    117 H117      -80.9607   22.6252  -76.0340 H         1 UNK         0.3047 
    118 H118      -79.7540   24.1405  -78.9498 H         1 UNK         0.0822 
    119 H119      -81.9111   23.5555  -80.0133 H         1 UNK         0.0807 
    120 H120      -82.1764   22.2635  -78.8409 H         1 UNK         0.0807 
    121 H121      -80.8584   22.1521  -79.9990 H         1 UNK         0.0807 
    122 H122      -82.2310   24.5469  -77.7586 H         1 UNK         0.2946 
    123 H123      -82.0315   27.0076  -76.7806 H         1 UNK         0.1144 
    124 H124      -83.6863   26.3029  -74.9762 H         1 UNK         0.0793 
    125 H125      -82.8038   24.7885  -74.8066 H         1 UNK         0.0793 
    126 H126      -83.6010   25.1861  -76.3203 H         1 UNK         0.0793 
    127 H127      -81.0154   28.1100  -75.1605 H         1 UNK         0.2896 
@<TRIPOS>BOND
     1    1    2 1    
     2    1   67 1    
     3    1   68 1    
     4    1   69 1    
     5    2    3 2    
     6    2    4 am   BACKBONE|DICT|INTERRES
     7    4    5 1    
     8    4   70 1    
     9    5    6 1    
    10    5   65 1    
    11    5   71 1    
    12    6    7 1    
    13    6   72 1    
    14    6   73 1    
    15    7    8 1    
    16    8    9 1    
    17    8   74 1    
    18    8   75 1    
    19    9   10 ar   
    20    9   14 ar   
    21   10   11 ar   
    22   10   76 1    
    23   11   12 ar   
    24   11   48 1    
    25   12   13 ar   
    26   12   77 1    
    27   13   14 ar   
    28   13   15 1    
    29   14   78 1    
    30   15   16 1    
    31   15   79 1    
    32   15   80 1    
    33   16   17 1    
    34   17   18 1    
    35   17   81 1    
    36   17   82 1    
    37   18   19 1    
    38   18   22 1    
    39   18   83 1    
    40   19   20 am   BACKBONE|DICT|INTERRES
    41   19   21 2    
    42   20   84 1    
    43   20   85 1    
    44   22   23 am   BACKBONE|DICT|INTERRES
    45   22   86 1    
    46   23   24 2    
    47   23   25 1    
    48   25   26 1    
    49   25   27 1    
    50   25   87 1    
    51   26   88 1    
    52   26   89 1    
    53   26   90 1    
    54   27   28 am   BACKBONE|DICT|INTERRES
    55   27   91 1    
    56   28   29 2    
    57   28   30 1    
    58   30   31 1    
    59   30   32 1    
    60   30   92 1    
    61   31   93 1    
    62   31   94 1    
    63   31   95 1    
    64   32   33 am   BACKBONE|DICT|INTERRES
    65   32   96 1    
    66   33   34 2    
    67   33   35 1    
    68   35   36 1    
    69   35   37 1    
    70   35   97 1    
    71   36   98 1    
    72   36   99 1    
    73   36  100 1    
    74   37   38 am   BACKBONE|DICT|INTERRES
    75   37  101 1    
    76   38   39 2    
    77   38   40 1    
    78   40   41 1    
    79   40   42 1    
    80   40  102 1    
    81   41  103 1    
    82   41  104 1    
    83   41  105 1    
    84   42   43 am   BACKBONE|DICT|INTERRES
    85   42  106 1    
    86   43   44 2    
    87   43   45 1    
    88   45   46 1    
    89   45   49 1    
    90   45  107 1    
    91   46   47 1    
    92   46  108 1    
    93   46  109 1    
    94   47   48 1    
    95   48  110 1    
    96   48  111 1    
    97   49   50 am   BACKBONE|DICT|INTERRES
    98   49  112 1    
    99   50   51 2    
   100   50   52 1    
   101   52   53 1    
   102   52   54 1    
   103   52  113 1    
   104   53  114 1    
   105   53  115 1    
   106   53  116 1    
   107   54   55 am   BACKBONE|DICT|INTERRES
   108   54  117 1    
   109   55   56 2    
   110   55   57 1    
   111   57   58 1    
   112   57   59 1    
   113   57  118 1    
   114   58  119 1    
   115   58  120 1    
   116   58  121 1    
   117   59   60 am   BACKBONE|DICT|INTERRES
   118   59  122 1    
   119   60   61 2    
   120   60   62 1    
   121   62   63 1    
   122   62   64 1    
   123   62  123 1    
   124   63  124 1    
   125   63  125 1    
   126   63  126 1    
   127   64   65 am   BACKBONE|DICT|INTERRES
   128   64  127 1    
   129   65   66 2    
@<TRIPOS>SUBSTRUCTURE
     1 UNK         1 GROUP             0       ****    0 ROOT    
