@<TRIPOS>MOLECULE
3R135
127   129    1
SMALL
USER_CHARGES


@<TRIPOS>ATOM
      1 CA        -83.8803   24.5779  -73.0629 C.3       0 UNK        -0.1998 
      2 C         -83.0065   25.5562  -73.8325 C.2       0 UNK         0.4909 
      3 O         -82.6916   25.3194  -75.0007 O.2       0 UNK        -0.5240 
      4 N         -82.6218   26.6612  -73.1815 N.am      1 UNK        -0.4739 
      5 CA        -81.7844   27.7259  -73.7432 C.3       1 UNK         0.0864 
      6 C6        -81.7558   28.9922  -72.8467 C.3       11 UNK        -0.0881 
      7 S7        -81.3598   28.6835  -71.0903 S.3       11 UNK        -0.2682 
      8 C8        -79.9152   29.7637  -70.8246 C.3       11 UNK         0.0289 
      9 C9        -78.6187   29.1439  -71.3279 C.ar      11 UNK        -0.0687 
     10 C10       -78.1605   27.9465  -70.7720 C.ar      11 UNK        -0.0823 
     11 C11       -76.9548   27.3809  -71.1922 C.ar      11 UNK        -0.0830 
     12 C12       -76.1968   28.0252  -72.1737 C.ar      11 UNK        -0.1021 
     13 C13       -76.6326   29.2345  -72.7242 C.ar      11 UNK        -0.0753 
     14 C14       -77.8504   29.7837  -72.3064 C.ar      11 UNK        -0.0933 
     15 C15       -75.7845   29.9536  -73.7630 C.3       11 UNK         0.0166 
     16 S16       -74.7244   31.2239  -73.0046 S.3       11 UNK        -0.2615 
     17 C17       -73.3995   30.2195  -72.2455 C.3       11 UNK        -0.0865 
     18 CA        -71.9843   30.6519  -72.7107 C.3       10 UNK         0.0862 
     19 C         -70.8771   29.9378  -71.8822 C.2       10 UNK         0.5551 
     20 N         -69.9605   29.1954  -72.4921 N.am      10 UNK        -0.7319 
     21 O         -70.8405   30.0730  -70.6616 O.2       10 UNK        -0.5018 
     22 N         -71.8204   30.5010  -74.1663 N.am      10 UNK        -0.4509 
     23 C         -71.1123   31.3308  -74.9463 C.2       10 UNK         0.4899 
     24 O         -70.5347   32.3334  -74.5242 O.2       10 UNK        -0.4839 
     25 CA        -71.0029   30.9995  -76.4499 C.3       9 UNK         0.0222 
     26 CB        -69.5698   30.5648  -76.8011 C.3       9 UNK        -0.1966 
     27 N         -71.9329   29.9600  -76.8943 N.am      9 UNK        -0.4218 
     28 C         -73.2580   30.1087  -77.0234 C.2       9 UNK         0.5020 
     29 O         -73.8383   31.1892  -76.9150 O.2       9 UNK        -0.5274 
     30 CA        -74.0854   28.8375  -77.2970 C.3       8 UNK         0.0270 
     31 CB        -74.5887   28.8170  -78.7494 C.3       8 UNK        -0.1976 
     32 N         -73.4047   27.5681  -77.0103 N.am      8 UNK        -0.4313 
     33 C         -72.9292   27.1702  -75.8232 C.2       8 UNK         0.5041 
     34 O         -72.9529   27.8747  -74.8128 O.2       8 UNK        -0.5577 
     35 CA        -72.3202   25.7551  -75.7705 C.3       7 UNK         0.0284 
     36 CB        -71.6555   25.4577  -74.4133 C.3       7 UNK        -0.1958 
     37 N         -73.3211   24.7214  -76.0388 N.am      7 UNK        -0.4454 
     38 C         -73.8891   24.4392  -77.2178 C.2       7 UNK         0.5089 
     39 O         -73.5691   24.9956  -78.2697 O.2       7 UNK        -0.5125 
     40 CA        -75.0272   23.3998  -77.2323 C.3       6 UNK         0.0408 
     41 CB        -74.4992   21.9912  -77.5640 C.3       6 UNK        -0.1791 
     42 N         -75.8652   23.4049  -76.0227 N.am      6 UNK        -0.4762 
     43 C         -75.5537   23.0213  -74.7759 C.2       6 UNK         0.5007 
     44 O         -74.4576   22.5561  -74.4634 O.2       6 UNK        -0.5032 
     45 CA        -76.6043   23.2486  -73.6735 C.3       5 UNK         0.0783 
     46 C46       -76.3020   24.5548  -72.9053 C.3       11 UNK        -0.0857 
     47 S47       -77.2468   24.6392  -71.3515 S.3       11 UNK        -0.2512 
     48 C48       -76.4719   26.0830  -70.5654 C.3       11 UNK         0.0225 
     49 N         -77.9776   23.2299  -74.1863 N.am      5 UNK        -0.4615 
     50 C         -78.6508   22.1130  -74.4876 C.2       4 UNK         0.5053 
     51 O         -78.1811   20.9795  -74.3836 O.2       4 UNK        -0.5105 
     52 CA        -80.0967   22.2879  -74.9780 C.3       4 UNK         0.0263 
     53 CB        -81.0544   22.4222  -73.7855 C.3       4 UNK        -0.1981 
     54 N         -80.2554   23.4373  -75.8723 N.am      4 UNK        -0.4224 
     55 C         -79.7835   23.4731  -77.1270 C.2       3 UNK         0.4895 
     56 O         -79.2135   22.5286  -77.6741 O.2       3 UNK        -0.5091 
     57 CA        -79.9600   24.7880  -77.9026 C.3       3 UNK         0.0250 
     58 CB        -81.3608   24.8645  -78.5308 C.3       3 UNK        -0.1996 
     59 N         -79.7227   25.9813  -77.0878 N.am      3 UNK        -0.4254 
     60 C         -78.5498   26.3083  -76.5245 C.2       2 UNK         0.5004 
     61 O         -77.5341   25.6217  -76.6085 O.2       2 UNK        -0.5226 
     62 CA        -78.4992   27.6235  -75.7293 C.3       2 UNK         0.0269 
     63 CB        -78.0810   28.7743  -76.6577 C.3       2 UNK        -0.1926 
     64 N         -79.7747   27.9659  -75.0983 N.am      2 UNK        -0.4687 
     65 C         -80.3732   27.2424  -74.1423 C.2       1 UNK         0.5165 
     66 O         -79.8765   26.2329  -73.6342 O.2       1 UNK        -0.5079 
     67 H67       -83.2682   23.9429  -72.4237 H         1 UNK         0.0900 
     68 H68       -84.4366   23.9395  -73.7489 H         1 UNK         0.0900 
     69 H69       -84.5998   25.1046  -72.4362 H         1 UNK         0.0900 
     70 H70       -82.8672   26.7804  -72.2088 H         1 UNK         0.2959 
     71 H71       -82.2723   28.0149  -74.6772 H         1 UNK         0.1079 
     72 H72       -81.0764   29.7422  -73.2560 H         1 UNK         0.0837 
     73 H73       -82.7406   29.4613  -72.8697 H         1 UNK         0.0837 
     74 H74       -80.0946   30.7372  -71.2835 H         1 UNK         0.0685 
     75 H75       -79.8156   29.9485  -69.7541 H         1 UNK         0.0685 
     76 H76       -78.7484   27.4513  -70.0111 H         1 UNK         0.1434 
     77 H77       -75.2632   27.5894  -72.5021 H         1 UNK         0.1329 
     78 H78       -78.1864   30.7205  -72.7294 H         1 UNK         0.1335 
     79 H79       -75.1722   29.2436  -74.3181 H         1 UNK         0.0680 
     80 H80       -76.4303   30.4390  -74.4946 H         1 UNK         0.0680 
     81 H81       -73.5520   29.1629  -72.4665 H         1 UNK         0.1032 
     82 H82       -73.4988   30.3180  -71.1628 H         1 UNK         0.1032 
     83 H83       -71.8855   31.7107  -72.4636 H         1 UNK         0.0461 
     84 H84       -69.2445   28.7433  -71.9459 H         1 UNK         0.3453 
     85 H85       -69.9863   29.0800  -73.4918 H         1 UNK         0.3453 
     86 H86       -72.2508   29.6718  -74.5669 H         1 UNK         0.2984 
     87 H87       -71.2264   31.9151  -77.0012 H         1 UNK         0.0554 
     88 H88       -69.4565   30.3956  -77.8721 H         1 UNK         0.0847 
     89 H89       -69.2853   29.6482  -76.2830 H         1 UNK         0.0847 
     90 H90       -68.8480   31.3334  -76.5207 H         1 UNK         0.0847 
     91 H91       -71.5547   29.0317  -77.0113 H         1 UNK         0.3141 
     92 H92       -74.9503   28.8866  -76.6360 H         1 UNK         0.0743 
     93 H93       -75.1448   29.7257  -78.9846 H         1 UNK         0.0784 
     94 H94       -73.7641   28.7451  -79.4598 H         1 UNK         0.0784 
     95 H95       -75.2586   27.9749  -78.9260 H         1 UNK         0.0784 
     96 H96       -73.3813   26.8823  -77.7608 H         1 UNK         0.3213 
     97 H97       -71.5492   25.7005  -76.5420 H         1 UNK         0.0855 
     98 H98       -70.8835   26.1941  -74.1857 H         1 UNK         0.0814 
     99 H99       -71.1778   24.4778  -74.4107 H         1 UNK         0.0814 
    100 H100      -72.3780   25.4812  -73.5963 H         1 UNK         0.0814 
    101 H101      -73.6302   24.1684  -75.2467 H         1 UNK         0.3105 
    102 H102      -75.6986   23.6933  -78.0409 H         1 UNK         0.0547 
    103 H103      -73.9970   21.9857  -78.5321 H         1 UNK         0.0837 
    104 H104      -73.7782   21.6372  -76.8270 H         1 UNK         0.0837 
    105 H105      -75.3114   21.2662  -77.6160 H         1 UNK         0.0837 
    106 H106      -76.7450   23.9006  -76.1438 H         1 UNK         0.3020 
    107 H107      -76.4906   22.4145  -72.9764 H         1 UNK         0.1245 
    108 H108      -76.5353   25.4281  -73.5178 H         1 UNK         0.0781 
    109 H109      -75.2412   24.6233  -72.6541 H         1 UNK         0.0781 
    110 H110      -75.3852   26.0034  -70.6237 H         1 UNK         0.0836 
    111 H111      -76.7175   26.0775  -69.5024 H         1 UNK         0.0836 
    112 H112      -78.4464   24.1225  -74.2629 H         1 UNK         0.3022 
    113 H113      -80.3704   21.3858  -75.5297 H         1 UNK         0.0747 
    114 H114      -82.0919   22.4461  -74.1182 H         1 UNK         0.0793 
    115 H115      -80.9528   21.5764  -73.1042 H         1 UNK         0.0793 
    116 H116      -80.8585   23.3297  -73.2123 H         1 UNK         0.0793 
    117 H117      -80.7480   24.2454  -75.5090 H         1 UNK         0.3047 
    118 H118      -79.2243   24.7914  -78.7100 H         1 UNK         0.0822 
    119 H119      -81.4649   25.7458  -79.1640 H         1 UNK         0.0807 
    120 H120      -82.1433   24.9015  -77.7714 H         1 UNK         0.0807 
    121 H121      -81.5556   23.9928  -79.1571 H         1 UNK         0.0807 
    122 H122      -80.5082   26.5995  -76.9481 H         1 UNK         0.2946 
    123 H123      -77.7489   27.5067  -74.9436 H         1 UNK         0.1144 
    124 H124      -77.1448   28.5451  -77.1649 H         1 UNK         0.0793 
    125 H125      -77.9388   29.7031  -76.1071 H         1 UNK         0.0793 
    126 H126      -78.8257   28.9583  -77.4331 H         1 UNK         0.0793 
    127 H127      -80.2430   28.7862  -75.4559 H         1 UNK         0.2896 
@<TRIPOS>BOND
     1    1    2 1    
     2    1   67 1    
     3    1   68 1    
     4    1   69 1    
     5    2    3 2    
     6    2    4 am   BACKBONE|DICT|INTERRES
     7    4    5 1    
     8    4   70 1    
     9    5    6 1    
    10    5   65 1    
    11    5   71 1    
    12    6    7 1    
    13    6   72 1    
    14    6   73 1    
    15    7    8 1    
    16    8    9 1    
    17    8   74 1    
    18    8   75 1    
    19    9   10 ar   
    20    9   14 ar   
    21   10   11 ar   
    22   10   76 1    
    23   11   12 ar   
    24   11   48 1    
    25   12   13 ar   
    26   12   77 1    
    27   13   14 ar   
    28   13   15 1    
    29   14   78 1    
    30   15   16 1    
    31   15   79 1    
    32   15   80 1    
    33   16   17 1    
    34   17   18 1    
    35   17   81 1    
    36   17   82 1    
    37   18   19 1    
    38   18   22 1    
    39   18   83 1    
    40   19   20 am   BACKBONE|DICT|INTERRES
    41   19   21 2    
    42   20   84 1    
    43   20   85 1    
    44   22   23 am   BACKBONE|DICT|INTERRES
    45   22   86 1    
    46   23   24 2    
    47   23   25 1    
    48   25   26 1    
    49   25   27 1    
    50   25   87 1    
    51   26   88 1    
    52   26   89 1    
    53   26   90 1    
    54   27   28 am   BACKBONE|DICT|INTERRES
    55   27   91 1    
    56   28   29 2    
    57   28   30 1    
    58   30   31 1    
    59   30   32 1    
    60   30   92 1    
    61   31   93 1    
    62   31   94 1    
    63   31   95 1    
    64   32   33 am   BACKBONE|DICT|INTERRES
    65   32   96 1    
    66   33   34 2    
    67   33   35 1    
    68   35   36 1    
    69   35   37 1    
    70   35   97 1    
    71   36   98 1    
    72   36   99 1    
    73   36  100 1    
    74   37   38 am   BACKBONE|DICT|INTERRES
    75   37  101 1    
    76   38   39 2    
    77   38   40 1    
    78   40   41 1    
    79   40   42 1    
    80   40  102 1    
    81   41  103 1    
    82   41  104 1    
    83   41  105 1    
    84   42   43 am   BACKBONE|DICT|INTERRES
    85   42  106 1    
    86   43   44 2    
    87   43   45 1    
    88   45   46 1    
    89   45   49 1    
    90   45  107 1    
    91   46   47 1    
    92   46  108 1    
    93   46  109 1    
    94   47   48 1    
    95   48  110 1    
    96   48  111 1    
    97   49   50 am   BACKBONE|DICT|INTERRES
    98   49  112 1    
    99   50   51 2    
   100   50   52 1    
   101   52   53 1    
   102   52   54 1    
   103   52  113 1    
   104   53  114 1    
   105   53  115 1    
   106   53  116 1    
   107   54   55 am   BACKBONE|DICT|INTERRES
   108   54  117 1    
   109   55   56 2    
   110   55   57 1    
   111   57   58 1    
   112   57   59 1    
   113   57  118 1    
   114   58  119 1    
   115   58  120 1    
   116   58  121 1    
   117   59   60 am   BACKBONE|DICT|INTERRES
   118   59  122 1    
   119   60   61 2    
   120   60   62 1    
   121   62   63 1    
   122   62   64 1    
   123   62  123 1    
   124   63  124 1    
   125   63  125 1    
   126   63  126 1    
   127   64   65 am   BACKBONE|DICT|INTERRES
   128   64  127 1    
   129   65   66 2    
@<TRIPOS>SUBSTRUCTURE
     1 UNK         1 GROUP             0       ****    0 ROOT    
