@<TRIPOS>MOLECULE
3R135
127   129    1
SMALL
USER_CHARGES


@<TRIPOS>ATOM
      1 CA        -83.8460   27.3494  -70.8872 C.3       0 UNK        -0.1998 
      2 C         -82.7588   27.3480  -71.9505 C.2       0 UNK         0.4909 
      3 O         -81.7311   26.6963  -71.7666 O.2       0 UNK        -0.5240 
      4 N         -82.9835   28.0708  -73.0573 N.am      1 UNK        -0.4739 
      5 CA        -82.1034   28.2523  -74.2257 C.3       1 UNK         0.0864 
      6 C6        -80.7184   28.8688  -73.8939 C.3       11 UNK        -0.0881 
      7 S7        -80.8564   30.5494  -73.1847 S.3       11 UNK        -0.2682 
      8 C8        -80.4169   30.3015  -71.4308 C.3       11 UNK         0.0289 
      9 C9        -78.9780   29.8361  -71.2654 C.ar      11 UNK        -0.0687 
     10 C10       -78.7058   28.5135  -70.9087 C.ar      11 UNK        -0.0823 
     11 C11       -77.3886   28.0516  -70.8506 C.ar      11 UNK        -0.0830 
     12 C12       -76.3378   28.9377  -71.1117 C.ar      11 UNK        -0.1021 
     13 C13       -76.5934   30.2773  -71.4322 C.ar      11 UNK        -0.0753 
     14 C14       -77.9193   30.7163  -71.5069 C.ar      11 UNK        -0.0933 
     15 C15       -75.4669   31.2472  -71.7830 C.3       11 UNK         0.0166 
     16 S16       -73.9534   31.0281  -70.7860 S.3       11 UNK        -0.2615 
     17 C17       -72.8176   32.1939  -71.6222 C.3       11 UNK        -0.0865 
     18 CA        -71.8150   31.5154  -72.5968 C.3       10 UNK         0.0862 
     19 C         -70.6800   30.7475  -71.8537 C.2       10 UNK         0.5551 
     20 N         -70.4493   29.4653  -72.1115 N.am      10 UNK        -0.7319 
     21 O         -69.9795   31.3375  -71.0344 O.2       10 UNK        -0.5018 
     22 N         -72.5194   30.7385  -73.6258 N.am      10 UNK        -0.4509 
     23 C         -72.0552   30.4605  -74.8472 C.2       10 UNK         0.4899 
     24 O         -70.9930   30.8852  -75.3059 O.2       10 UNK        -0.4839 
     25 CA        -72.9464   29.5434  -75.7010 C.3       9 UNK         0.0222 
     26 CB        -73.4591   30.2834  -76.9472 C.3       9 UNK        -0.1966 
     27 N         -72.2756   28.3066  -76.1089 N.am      9 UNK        -0.4218 
     28 C         -71.6916   27.4201  -75.2874 C.2       9 UNK         0.5020 
     29 O         -71.5742   27.5768  -74.0694 O.2       9 UNK        -0.5274 
     30 CA        -71.2154   26.1158  -75.9436 C.3       8 UNK         0.0270 
     31 CB        -70.6988   25.0755  -74.9303 C.3       8 UNK        -0.1976 
     32 N         -72.3171   25.5441  -76.7172 N.am      8 UNK        -0.4313 
     33 C         -72.1910   24.9097  -77.8898 C.2       8 UNK         0.5041 
     34 O         -71.1055   24.7065  -78.4363 O.2       8 UNK        -0.5577 
     35 CA        -73.4740   24.4114  -78.5881 C.3       7 UNK         0.0284 
     36 CB        -73.6283   22.8939  -78.3940 C.3       7 UNK        -0.1958 
     37 N         -74.7080   25.0712  -78.1524 N.am      7 UNK        -0.4454 
     38 C         -74.9856   26.3756  -78.2844 C.2       7 UNK         0.5089 
     39 O         -74.2474   27.1800  -78.8535 O.2       7 UNK        -0.5125 
     40 CA        -76.2806   26.8788  -77.6192 C.3       6 UNK         0.0408 
     41 CB        -77.4527   26.8163  -78.6092 C.3       6 UNK        -0.1791 
     42 N         -76.6412   26.1642  -76.3875 N.am      6 UNK        -0.4762 
     43 C         -75.8611   26.0555  -75.3002 C.2       6 UNK         0.5007 
     44 O         -74.7200   26.5046  -75.2309 O.2       6 UNK        -0.5032 
     45 CA        -76.4351   25.2887  -74.1000 C.3       5 UNK         0.0783 
     46 C46       -77.4833   26.1513  -73.3636 C.3       11 UNK        -0.0857 
     47 S47       -77.9522   25.4577  -71.7429 S.3       11 UNK        -0.2512 
     48 C48       -77.1005   26.5792  -70.5757 C.3       11 UNK         0.0225 
     49 N         -76.9621   23.9978  -74.5416 N.am      5 UNK        -0.4615 
     50 C         -76.1974   22.9409  -74.8483 C.2       4 UNK         0.5053 
     51 O         -74.9793   22.9046  -74.6762 O.2       4 UNK        -0.5105 
     52 CA        -76.9014   21.7236  -75.4741 C.3       4 UNK         0.0263 
     53 CB        -77.3282   20.7306  -74.3814 C.3       4 UNK        -0.1981 
     54 N         -78.0681   22.0838  -76.2840 N.am      4 UNK        -0.4224 
     55 C         -78.0240   22.7985  -77.4183 C.2       3 UNK         0.4895 
     56 O         -76.9823   23.1883  -77.9449 O.2       3 UNK        -0.5091 
     57 CA        -79.3786   23.1919  -78.0354 C.3       3 UNK         0.0250 
     58 CB        -79.8807   22.0908  -78.9825 C.3       3 UNK        -0.1996 
     59 N         -80.4084   23.4885  -77.0311 N.am      3 UNK        -0.4254 
     60 C         -80.3195   24.4687  -76.1206 C.2       2 UNK         0.5004 
     61 O         -79.3587   25.2376  -76.0416 O.2       2 UNK        -0.5226 
     62 CA        -81.4484   24.5335  -75.0780 C.3       2 UNK         0.0269 
     63 CB        -81.1879   23.5104  -73.9594 C.3       2 UNK        -0.1926 
     64 N         -81.5947   25.8547  -74.4641 N.am      2 UNK        -0.4687 
     65 C         -81.9717   26.9770  -75.0878 C.2       1 UNK         0.5165 
     66 O         -82.2555   27.0269  -76.2859 O.2       1 UNK        -0.5079 
     67 H67       -84.6965   27.9683  -71.1723 H         1 UNK         0.0900 
     68 H68       -84.2054   26.3348  -70.7180 H         1 UNK         0.0900 
     69 H69       -83.4485   27.7316  -69.9473 H         1 UNK         0.0900 
     70 H70       -83.8660   28.5577  -73.1321 H         1 UNK         0.2959 
     71 H71       -82.6237   28.9732  -74.8591 H         1 UNK         0.1079 
     72 H72       -80.1182   28.9558  -74.8017 H         1 UNK         0.0837 
     73 H73       -80.1501   28.2166  -73.2315 H         1 UNK         0.0837 
     74 H74       -80.5531   31.2431  -70.8971 H         1 UNK         0.0685 
     75 H75       -81.1109   29.5923  -70.9787 H         1 UNK         0.0685 
     76 H76       -79.5208   27.8242  -70.7324 H         1 UNK         0.1434 
     77 H77       -75.3190   28.5762  -71.0898 H         1 UNK         0.1329 
     78 H78       -78.1344   31.7379  -71.7899 H         1 UNK         0.1335 
     79 H79       -75.8073   32.2767  -71.6593 H         1 UNK         0.0680 
     80 H80       -75.2298   31.1240  -72.8399 H         1 UNK         0.0680 
     81 H81       -73.4035   32.9366  -72.1659 H         1 UNK         0.1032 
     82 H82       -72.2839   32.7623  -70.8581 H         1 UNK         0.1032 
     83 H83       -71.3005   32.3272  -73.1148 H         1 UNK         0.0461 
     84 H84       -70.9954   28.9555  -72.7996 H         1 UNK         0.3453 
     85 H85       -69.7066   28.9942  -71.6210 H         1 UNK         0.3453 
     86 H86       -73.3716   30.2948  -73.3176 H         1 UNK         0.2984 
     87 H87       -73.8154   29.2479  -75.1091 H         1 UNK         0.0554 
     88 H88       -73.9777   31.2022  -76.6701 H         1 UNK         0.0847 
     89 H89       -74.1645   29.6732  -77.5112 H         1 UNK         0.0847 
     90 H90       -72.6432   30.5590  -77.6168 H         1 UNK         0.0847 
     91 H91       -72.3321   28.0729  -77.0902 H         1 UNK         0.3141 
     92 H92       -70.3938   26.3870  -76.6099 H         1 UNK         0.0743 
     93 H93       -71.4816   24.7738  -74.2330 H         1 UNK         0.0784 
     94 H94       -70.3345   24.1796  -75.4332 H         1 UNK         0.0784 
     95 H95       -69.8717   25.4769  -74.3434 H         1 UNK         0.0784 
     96 H96       -73.2459   25.7125  -76.3366 H         1 UNK         0.3213 
     97 H97       -73.3558   24.6109  -79.6551 H         1 UNK         0.0855 
     98 H98       -73.7945   22.6381  -77.3465 H         1 UNK         0.0814 
     99 H99       -72.7344   22.3623  -78.7231 H         1 UNK         0.0814 
    100 H100      -74.4665   22.5028  -78.9712 H         1 UNK         0.0814 
    101 H101      -75.4217   24.4757  -77.7428 H         1 UNK         0.3105 
    102 H102      -76.1226   27.9238  -77.3454 H         1 UNK         0.0547 
    103 H103      -77.2500   27.4261  -79.4905 H         1 UNK         0.0837 
    104 H104      -77.6307   25.7980  -78.9538 H         1 UNK         0.0837 
    105 H105      -78.3753   27.1870  -78.1618 H         1 UNK         0.0837 
    106 H106      -77.5812   25.7742  -76.3449 H         1 UNK         0.3020 
    107 H107      -75.6051   25.1082  -73.4121 H         1 UNK         0.1245 
    108 H108      -78.3933   26.2593  -73.9529 H         1 UNK         0.0781 
    109 H109      -77.1066   27.1662  -73.2386 H         1 UNK         0.0781 
    110 H110      -76.0289   26.3791  -70.6223 H         1 UNK         0.0836 
    111 H111      -77.4146   26.3383  -69.5594 H         1 UNK         0.0836 
    112 H112      -77.9489   23.9718  -74.7542 H         1 UNK         0.3022 
    113 H113      -76.1808   21.2280  -76.1284 H         1 UNK         0.0747 
    114 H114      -77.7574   19.8257  -74.8120 H         1 UNK         0.0793 
    115 H115      -76.4726   20.4251  -73.7773 H         1 UNK         0.0793 
    116 H116      -78.0656   21.1651  -73.7049 H         1 UNK         0.0793 
    117 H117      -78.9709   21.7995  -75.9340 H         1 UNK         0.3047 
    118 H118      -79.2224   24.0985  -78.6223 H         1 UNK         0.0822 
    119 H119      -80.7926   22.3949  -79.4968 H         1 UNK         0.0807 
    120 H120      -80.0878   21.1609  -78.4515 H         1 UNK         0.0807 
    121 H121      -79.1376   21.8692  -79.7500 H         1 UNK         0.0807 
    122 H122      -81.2229   22.8907  -77.0292 H         1 UNK         0.2946 
    123 H123      -82.3903   24.2911  -75.5751 H         1 UNK         0.1144 
    124 H124      -81.9969   23.5095  -73.2285 H         1 UNK         0.0793 
    125 H125      -80.2601   23.7251  -73.4265 H         1 UNK         0.0793 
    126 H126      -81.1125   22.4968  -74.3549 H         1 UNK         0.0793 
    127 H127      -81.4099   25.9268  -73.4666 H         1 UNK         0.2896 
@<TRIPOS>BOND
     1    1    2 1    
     2    1   67 1    
     3    1   68 1    
     4    1   69 1    
     5    2    3 2    
     6    2    4 am   BACKBONE|DICT|INTERRES
     7    4    5 1    
     8    4   70 1    
     9    5    6 1    
    10    5   65 1    
    11    5   71 1    
    12    6    7 1    
    13    6   72 1    
    14    6   73 1    
    15    7    8 1    
    16    8    9 1    
    17    8   74 1    
    18    8   75 1    
    19    9   10 ar   
    20    9   14 ar   
    21   10   11 ar   
    22   10   76 1    
    23   11   12 ar   
    24   11   48 1    
    25   12   13 ar   
    26   12   77 1    
    27   13   14 ar   
    28   13   15 1    
    29   14   78 1    
    30   15   16 1    
    31   15   79 1    
    32   15   80 1    
    33   16   17 1    
    34   17   18 1    
    35   17   81 1    
    36   17   82 1    
    37   18   19 1    
    38   18   22 1    
    39   18   83 1    
    40   19   20 am   BACKBONE|DICT|INTERRES
    41   19   21 2    
    42   20   84 1    
    43   20   85 1    
    44   22   23 am   BACKBONE|DICT|INTERRES
    45   22   86 1    
    46   23   24 2    
    47   23   25 1    
    48   25   26 1    
    49   25   27 1    
    50   25   87 1    
    51   26   88 1    
    52   26   89 1    
    53   26   90 1    
    54   27   28 am   BACKBONE|DICT|INTERRES
    55   27   91 1    
    56   28   29 2    
    57   28   30 1    
    58   30   31 1    
    59   30   32 1    
    60   30   92 1    
    61   31   93 1    
    62   31   94 1    
    63   31   95 1    
    64   32   33 am   BACKBONE|DICT|INTERRES
    65   32   96 1    
    66   33   34 2    
    67   33   35 1    
    68   35   36 1    
    69   35   37 1    
    70   35   97 1    
    71   36   98 1    
    72   36   99 1    
    73   36  100 1    
    74   37   38 am   BACKBONE|DICT|INTERRES
    75   37  101 1    
    76   38   39 2    
    77   38   40 1    
    78   40   41 1    
    79   40   42 1    
    80   40  102 1    
    81   41  103 1    
    82   41  104 1    
    83   41  105 1    
    84   42   43 am   BACKBONE|DICT|INTERRES
    85   42  106 1    
    86   43   44 2    
    87   43   45 1    
    88   45   46 1    
    89   45   49 1    
    90   45  107 1    
    91   46   47 1    
    92   46  108 1    
    93   46  109 1    
    94   47   48 1    
    95   48  110 1    
    96   48  111 1    
    97   49   50 am   BACKBONE|DICT|INTERRES
    98   49  112 1    
    99   50   51 2    
   100   50   52 1    
   101   52   53 1    
   102   52   54 1    
   103   52  113 1    
   104   53  114 1    
   105   53  115 1    
   106   53  116 1    
   107   54   55 am   BACKBONE|DICT|INTERRES
   108   54  117 1    
   109   55   56 2    
   110   55   57 1    
   111   57   58 1    
   112   57   59 1    
   113   57  118 1    
   114   58  119 1    
   115   58  120 1    
   116   58  121 1    
   117   59   60 am   BACKBONE|DICT|INTERRES
   118   59  122 1    
   119   60   61 2    
   120   60   62 1    
   121   62   63 1    
   122   62   64 1    
   123   62  123 1    
   124   63  124 1    
   125   63  125 1    
   126   63  126 1    
   127   64   65 am   BACKBONE|DICT|INTERRES
   128   64  127 1    
   129   65   66 2    
@<TRIPOS>SUBSTRUCTURE
     1 UNK         1 GROUP             0       ****    0 ROOT    
