@<TRIPOS>MOLECULE
3R135
127   129    1
SMALL
USER_CHARGES


@<TRIPOS>ATOM
      1 CA        -80.1407   29.0333  -70.9752 C.3       0 UNK        -0.1998 
      2 C         -80.9448   28.8912  -72.2588 C.2       0 UNK         0.4909 
      3 O         -82.1697   28.7796  -72.2089 O.2       0 UNK        -0.5240 
      4 N         -80.2615   28.8913  -73.4102 N.am      1 UNK        -0.4739 
      5 CA        -80.8489   28.7583  -74.7492 C.3       1 UNK         0.0864 
      6 C6        -79.9286   29.3684  -75.8375 C.3       11 UNK        -0.0881 
      7 S7        -78.3387   28.5037  -76.1025 S.3       11 UNK        -0.2682 
      8 C8        -77.1756   29.4607  -75.0616 C.3       11 UNK         0.0289 
      9 C9        -76.9001   28.8843  -73.6700 C.ar      11 UNK        -0.0687 
     10 C10       -77.4107   27.6536  -73.2382 C.ar      11 UNK        -0.0823 
     11 C11       -77.1006   27.1458  -71.9737 C.ar      11 UNK        -0.0830 
     12 C12       -76.2687   27.8791  -71.1249 C.ar      11 UNK        -0.1021 
     13 C13       -75.7507   29.1093  -71.5379 C.ar      11 UNK        -0.0753 
     14 C14       -76.0718   29.6052  -72.8055 C.ar      11 UNK        -0.0933 
     15 C15       -74.8281   29.9008  -70.6281 C.3       11 UNK         0.0166 
     16 S16       -73.0892   29.5855  -71.0562 S.3       11 UNK        -0.2615 
     17 C17       -72.3506   31.2206  -70.7227 C.3       11 UNK        -0.0865 
     18 CA        -72.5139   32.2124  -71.9136 C.3       10 UNK         0.0862 
     19 C         -71.9985   33.6450  -71.5752 C.2       10 UNK         0.5551 
     20 N         -71.4837   34.4042  -72.5349 N.am      10 UNK        -0.7319 
     21 O         -72.0953   34.0912  -70.4343 O.2       10 UNK        -0.5018 
     22 N         -72.0356   31.6650  -73.1968 N.am      10 UNK        -0.4509 
     23 C         -70.7777   31.3315  -73.5056 C.2       10 UNK         0.4899 
     24 O         -69.8220   31.4514  -72.7371 O.2       10 UNK        -0.4839 
     25 CA        -70.5670   30.7537  -74.9179 C.3       9 UNK         0.0222 
     26 CB        -69.0772   30.6456  -75.2949 C.3       9 UNK        -0.1966 
     27 N         -71.1912   29.4365  -75.0666 N.am      9 UNK        -0.4218 
     28 C         -72.4991   29.2081  -75.2426 C.2       9 UNK         0.5020 
     29 O         -73.3566   30.0966  -75.2670 O.2       9 UNK        -0.5274 
     30 CA        -72.9116   27.7329  -75.3969 C.3       8 UNK         0.0270 
     31 CB        -73.2223   27.1091  -74.0269 C.3       8 UNK        -0.1976 
     32 N         -74.0706   27.5773  -76.2793 N.am      8 UNK        -0.4313 
     33 C         -74.0576   27.8275  -77.5958 C.2       8 UNK         0.5041 
     34 O         -73.0372   28.1089  -78.2293 O.2       8 UNK        -0.5577 
     35 CA        -75.4190   27.7470  -78.3119 C.3       7 UNK         0.0284 
     36 CB        -75.3365   28.0852  -79.8171 C.3       7 UNK        -0.1958 
     37 N         -76.1004   26.4628  -78.0936 N.am      7 UNK        -0.4454 
     38 C         -75.6834   25.2526  -78.4956 C.2       7 UNK         0.5089 
     39 O         -74.6247   25.0449  -79.0914 O.2       7 UNK        -0.5125 
     40 CA        -76.6329   24.0816  -78.1773 C.3       6 UNK         0.0408 
     41 CB        -76.2655   22.7942  -78.9458 C.3       6 UNK        -0.1791 
     42 N         -76.7407   23.8196  -76.7375 N.am      6 UNK        -0.4762 
     43 C         -75.7531   23.4687  -75.8951 C.2       6 UNK         0.5007 
     44 O         -74.5760   23.3207  -76.2230 O.2       6 UNK        -0.5032 
     45 CA        -76.1577   23.2290  -74.4299 C.3       5 UNK         0.0783 
     46 C46       -76.3627   24.5794  -73.7138 C.3       11 UNK        -0.0857 
     47 S47       -76.5495   24.4181  -71.9088 S.3       11 UNK        -0.2512 
     48 C48       -77.6701   25.8050  -71.5301 C.3       11 UNK         0.0225 
     49 N         -77.3583   22.3937  -74.3780 N.am      5 UNK        -0.4615 
     50 C         -77.3536   21.0544  -74.3834 C.2       4 UNK         0.5053 
     51 O         -76.3309   20.3709  -74.3309 O.2       4 UNK        -0.5105 
     52 CA        -78.7231   20.3547  -74.4717 C.3       4 UNK         0.0263 
     53 CB        -79.2813   20.0883  -73.0644 C.3       4 UNK        -0.1981 
     54 N         -79.7014   21.1265  -75.2422 N.am      4 UNK        -0.4224 
     55 C         -79.6298   21.3475  -76.5635 C.2       3 UNK         0.4895 
     56 O         -78.8136   20.7978  -77.3017 O.2       3 UNK        -0.5091 
     57 CA        -80.6171   22.3663  -77.1663 C.3       3 UNK         0.0250 
     58 CB        -81.7313   21.6429  -77.9401 C.3       3 UNK        -0.1996 
     59 N         -81.2238   23.2684  -76.1792 N.am      3 UNK        -0.4254 
     60 C         -80.5633   24.1981  -75.4757 C.2       2 UNK         0.5004 
     61 O         -79.3498   24.4027  -75.5749 O.2       2 UNK        -0.5226 
     62 CA        -81.3809   24.9377  -74.4072 C.3       2 UNK         0.0269 
     63 CB        -81.2393   24.2225  -73.0529 C.3       2 UNK        -0.1926 
     64 N         -80.9632   26.3322  -74.2603 N.am      2 UNK        -0.4687 
     65 C         -81.3156   27.3224  -75.0936 C.2       1 UNK         0.5165 
     66 O         -82.0133   27.1437  -76.0938 O.2       1 UNK        -0.5079 
     67 H67       -80.1422   28.0932  -70.4245 H         1 UNK         0.0900 
     68 H68       -80.5788   29.8023  -70.3397 H         1 UNK         0.0900 
     69 H69       -79.1053   29.3114  -71.1722 H         1 UNK         0.0900 
     70 H70       -79.2547   28.9846  -73.3888 H         1 UNK         0.2959 
     71 H71       -81.7632   29.3565  -74.7501 H         1 UNK         0.1079 
     72 H72       -80.4543   29.3808  -76.7943 H         1 UNK         0.0837 
     73 H73       -79.7382   30.4183  -75.6111 H         1 UNK         0.0837 
     74 H74       -76.2243   29.5213  -75.5912 H         1 UNK         0.0685 
     75 H75       -77.5267   30.4888  -74.9654 H         1 UNK         0.0685 
     76 H76       -78.0515   27.0736  -73.8843 H         1 UNK         0.1434 
     77 H77       -76.0159   27.4876  -70.1490 H         1 UNK         0.1329 
     78 H78       -75.6524   30.5484  -73.1292 H         1 UNK         0.1335 
     79 H79       -75.0582   30.9630  -70.7207 H         1 UNK         0.0680 
     80 H80       -74.9951   29.6401  -69.5819 H         1 UNK         0.0680 
     81 H81       -71.2939   31.0783  -70.4911 H         1 UNK         0.1032 
     82 H82       -72.8011   31.6247  -69.8142 H         1 UNK         0.1032 
     83 H83       -73.5849   32.3513  -72.0620 H         1 UNK         0.0461 
     84 H84       -71.1622   35.3333  -72.3131 H         1 UNK         0.3453 
     85 H85       -71.4110   34.0539  -73.4765 H         1 UNK         0.3453 
     86 H86       -72.7501   31.4586  -73.8876 H         1 UNK         0.2984 
     87 H87       -71.0348   31.4422  -75.6251 H         1 UNK         0.0554 
     88 H88       -68.9510   30.3047  -76.3228 H         1 UNK         0.0847 
     89 H89       -68.5418   29.9536  -74.6434 H         1 UNK         0.0847 
     90 H90       -68.5834   31.6151  -75.2153 H         1 UNK         0.0847 
     91 H91       -70.5688   28.6427  -75.0155 H         1 UNK         0.3141 
     92 H92       -72.0771   27.1867  -75.8421 H         1 UNK         0.0743 
     93 H93       -74.1212   27.5349  -73.5799 H         1 UNK         0.0784 
     94 H94       -73.3578   26.0311  -74.1079 H         1 UNK         0.0784 
     95 H95       -72.4050   27.2745  -73.3235 H         1 UNK         0.0784 
     96 H96       -74.9533   27.3757  -75.8351 H         1 UNK         0.3213 
     97 H97       -76.0424   28.5156  -77.8563 H         1 UNK         0.0855 
     98 H98       -74.9329   29.0872  -79.9675 H         1 UNK         0.0814 
     99 H99       -76.3211   28.0601  -80.2839 H         1 UNK         0.0814 
    100 H100      -74.6901   27.3936  -80.3580 H         1 UNK         0.0814 
    101 H101      -76.9787   26.5159  -77.5945 H         1 UNK         0.3105 
    102 H102      -77.6278   24.3831  -78.5091 H         1 UNK         0.0547 
    103 H103      -76.2504   22.9750  -80.0212 H         1 UNK         0.0837 
    104 H104      -75.2809   22.4174  -78.6681 H         1 UNK         0.0837 
    105 H105      -76.9892   22.0014  -78.7635 H         1 UNK         0.0837 
    106 H106      -77.6680   23.9614  -76.3420 H         1 UNK         0.3020 
    107 H107      -75.3299   22.7069  -73.9436 H         1 UNK         0.1245 
    108 H108      -77.2449   25.0665  -74.1247 H         1 UNK         0.0781 
    109 H109      -75.5252   25.2534  -73.8940 H         1 UNK         0.0781 
    110 H110      -77.8612   25.8208  -70.4560 H         1 UNK         0.0836 
    111 H111      -78.6353   25.6318  -72.0043 H         1 UNK         0.0836 
    112 H112      -78.2395   22.8818  -74.4623 H         1 UNK         0.3022 
    113 H113      -78.5753   19.3950  -74.9718 H         1 UNK         0.0747 
    114 H114      -80.2197   19.5350  -73.1071 H         1 UNK         0.0793 
    115 H115      -78.5825   19.4925  -72.4754 H         1 UNK         0.0793 
    116 H116      -79.4605   21.0147  -72.5169 H         1 UNK         0.0793 
    117 H117      -80.4330   21.5857  -74.7214 H         1 UNK         0.3047 
    118 H118      -80.0513   22.9784  -77.8722 H         1 UNK         0.0822 
    119 H119      -82.3876   22.3508  -78.4468 H         1 UNK         0.0807 
    120 H120      -82.3445   21.0247  -77.2833 H         1 UNK         0.0807 
    121 H121      -81.3131   20.9882  -78.7063 H         1 UNK         0.0807 
    122 H122      -82.2152   23.1531  -76.0220 H         1 UNK         0.2946 
    123 H123      -82.4351   24.9277  -74.6951 H         1 UNK         0.1144 
    124 H124      -81.6747   23.2232  -73.0927 H         1 UNK         0.0793 
    125 H125      -81.7552   24.7638  -72.2595 H         1 UNK         0.0793 
    126 H126      -80.1960   24.1061  -72.7592 H         1 UNK         0.0793 
    127 H127      -80.3850   26.5606  -73.4675 H         1 UNK         0.2896 
@<TRIPOS>BOND
     1    1    2 1    
     2    1   67 1    
     3    1   68 1    
     4    1   69 1    
     5    2    3 2    
     6    2    4 am   BACKBONE|DICT|INTERRES
     7    4    5 1    
     8    4   70 1    
     9    5    6 1    
    10    5   65 1    
    11    5   71 1    
    12    6    7 1    
    13    6   72 1    
    14    6   73 1    
    15    7    8 1    
    16    8    9 1    
    17    8   74 1    
    18    8   75 1    
    19    9   10 ar   
    20    9   14 ar   
    21   10   11 ar   
    22   10   76 1    
    23   11   12 ar   
    24   11   48 1    
    25   12   13 ar   
    26   12   77 1    
    27   13   14 ar   
    28   13   15 1    
    29   14   78 1    
    30   15   16 1    
    31   15   79 1    
    32   15   80 1    
    33   16   17 1    
    34   17   18 1    
    35   17   81 1    
    36   17   82 1    
    37   18   19 1    
    38   18   22 1    
    39   18   83 1    
    40   19   20 am   BACKBONE|DICT|INTERRES
    41   19   21 2    
    42   20   84 1    
    43   20   85 1    
    44   22   23 am   BACKBONE|DICT|INTERRES
    45   22   86 1    
    46   23   24 2    
    47   23   25 1    
    48   25   26 1    
    49   25   27 1    
    50   25   87 1    
    51   26   88 1    
    52   26   89 1    
    53   26   90 1    
    54   27   28 am   BACKBONE|DICT|INTERRES
    55   27   91 1    
    56   28   29 2    
    57   28   30 1    
    58   30   31 1    
    59   30   32 1    
    60   30   92 1    
    61   31   93 1    
    62   31   94 1    
    63   31   95 1    
    64   32   33 am   BACKBONE|DICT|INTERRES
    65   32   96 1    
    66   33   34 2    
    67   33   35 1    
    68   35   36 1    
    69   35   37 1    
    70   35   97 1    
    71   36   98 1    
    72   36   99 1    
    73   36  100 1    
    74   37   38 am   BACKBONE|DICT|INTERRES
    75   37  101 1    
    76   38   39 2    
    77   38   40 1    
    78   40   41 1    
    79   40   42 1    
    80   40  102 1    
    81   41  103 1    
    82   41  104 1    
    83   41  105 1    
    84   42   43 am   BACKBONE|DICT|INTERRES
    85   42  106 1    
    86   43   44 2    
    87   43   45 1    
    88   45   46 1    
    89   45   49 1    
    90   45  107 1    
    91   46   47 1    
    92   46  108 1    
    93   46  109 1    
    94   47   48 1    
    95   48  110 1    
    96   48  111 1    
    97   49   50 am   BACKBONE|DICT|INTERRES
    98   49  112 1    
    99   50   51 2    
   100   50   52 1    
   101   52   53 1    
   102   52   54 1    
   103   52  113 1    
   104   53  114 1    
   105   53  115 1    
   106   53  116 1    
   107   54   55 am   BACKBONE|DICT|INTERRES
   108   54  117 1    
   109   55   56 2    
   110   55   57 1    
   111   57   58 1    
   112   57   59 1    
   113   57  118 1    
   114   58  119 1    
   115   58  120 1    
   116   58  121 1    
   117   59   60 am   BACKBONE|DICT|INTERRES
   118   59  122 1    
   119   60   61 2    
   120   60   62 1    
   121   62   63 1    
   122   62   64 1    
   123   62  123 1    
   124   63  124 1    
   125   63  125 1    
   126   63  126 1    
   127   64   65 am   BACKBONE|DICT|INTERRES
   128   64  127 1    
   129   65   66 2    
@<TRIPOS>SUBSTRUCTURE
     1 UNK         1 GROUP             0       ****    0 ROOT    
