@<TRIPOS>MOLECULE
3R135
127   129    1
SMALL
USER_CHARGES


@<TRIPOS>ATOM
      1 CA        -82.5049   26.4601  -70.1759 C.3       0 UNK        -0.1998 
      2 C         -82.8543   27.0398  -71.5396 C.2       0 UNK         0.4909 
      3 O         -84.0261   27.0534  -71.9194 O.2       0 UNK        -0.5240 
      4 N         -81.8440   27.5132  -72.2815 N.am      1 UNK        -0.4739 
      5 CA        -81.9924   28.1111  -73.6191 C.3       1 UNK         0.0864 
      6 C6        -80.8395   29.0962  -73.9480 C.3       11 UNK        -0.0881 
      7 S7        -80.7115   30.4379  -72.7141 S.3       11 UNK        -0.2682 
      8 C8        -78.9389   30.8775  -72.8002 C.3       11 UNK         0.0289 
      9 C9        -77.9590   29.7643  -72.4225 C.ar      11 UNK        -0.0687 
     10 C10       -78.3153   28.7034  -71.5786 C.ar      11 UNK        -0.0823 
     11 C11       -77.4066   27.6825  -71.2833 C.ar      11 UNK        -0.0830 
     12 C12       -76.1092   27.7586  -71.7986 C.ar      11 UNK        -0.1021 
     13 C13       -75.7293   28.8203  -72.6224 C.ar      11 UNK        -0.0753 
     14 C14       -76.6577   29.8170  -72.9322 C.ar      11 UNK        -0.0933 
     15 C15       -74.3330   28.8507  -73.2207 C.3       11 UNK         0.0166 
     16 S16       -73.0381   29.0400  -71.9480 S.3       11 UNK        -0.2615 
     17 C17       -72.5685   30.8102  -71.9655 C.3       11 UNK        -0.0865 
     18 CA        -72.4621   31.5015  -73.3540 C.3       10 UNK         0.0862 
     19 C         -71.8313   32.9190  -73.2240 C.2       10 UNK         0.5551 
     20 N         -70.7061   33.2080  -73.8662 N.am      10 UNK        -0.7319 
     21 O         -72.3776   33.7721  -72.5289 O.2       10 UNK        -0.5018 
     22 N         -71.8390   30.6303  -74.3665 N.am      10 UNK        -0.4509 
     23 C         -72.0259   30.7482  -75.6851 C.2       10 UNK         0.4899 
     24 O         -72.6523   31.6715  -76.2056 O.2       10 UNK        -0.4839 
     25 CA        -71.4661   29.6354  -76.5839 C.3       9 UNK         0.0222 
     26 CB        -70.0058   29.9155  -76.9902 C.3       9 UNK        -0.1966 
     27 N         -71.6511   28.2739  -76.0584 N.am      9 UNK        -0.4218 
     28 C         -70.9993   27.6446  -75.0671 C.2       9 UNK         0.5020 
     29 O         -70.1629   28.2012  -74.3541 O.2       9 UNK        -0.5274 
     30 CA        -71.3159   26.1499  -74.8190 C.3       8 UNK         0.0270 
     31 CB        -71.6266   25.8612  -73.3401 C.3       8 UNK        -0.1976 
     32 N         -72.4024   25.6190  -75.6506 N.am      8 UNK        -0.4313 
     33 C         -72.2845   25.2892  -76.9468 C.2       8 UNK         0.5041 
     34 O         -71.2118   25.2999  -77.5515 O.2       8 UNK        -0.5577 
     35 CA        -73.5690   24.9283  -77.7229 C.3       7 UNK         0.0284 
     36 CB        -73.6900   23.4023  -77.8664 C.3       7 UNK        -0.1958 
     37 N         -74.8098   25.4532  -77.1422 N.am      7 UNK        -0.4454 
     38 C         -75.0713   26.7350  -76.8470 C.2       7 UNK         0.5089 
     39 O         -74.3168   27.6662  -77.1289 O.2       7 UNK        -0.5125 
     40 CA        -76.3507   27.0243  -76.0394 C.3       6 UNK         0.0408 
     41 CB        -77.4774   27.5038  -76.9647 C.3       6 UNK        -0.1791 
     42 N         -76.8327   25.8991  -75.2283 N.am      6 UNK        -0.4762 
     43 C         -76.1385   25.2526  -74.2763 C.2       6 UNK         0.5007 
     44 O         -74.9561   25.4778  -74.0152 O.2       6 UNK        -0.5032 
     45 CA        -76.8733   24.1121  -73.5512 C.3       5 UNK         0.0783 
     46 C46       -77.9239   24.6286  -72.5302 C.3       11 UNK        -0.0857 
     47 S47       -77.1814   24.8934  -70.8836 S.3       11 UNK        -0.2512 
     48 C48       -77.8397   26.5239  -70.3877 C.3       11 UNK         0.0225 
     49 N         -77.4606   23.2093  -74.5418 N.am      5 UNK        -0.4615 
     50 C         -76.7965   22.2053  -75.1320 C.2       4 UNK         0.5053 
     51 O         -75.6499   21.8739  -74.8309 O.2       4 UNK        -0.5105 
     52 CA        -77.5213   21.4376  -76.2527 C.3       4 UNK         0.0263 
     53 CB        -78.1899   20.1731  -75.6896 C.3       4 UNK        -0.1981 
     54 N         -78.5235   22.2380  -76.9599 N.am      4 UNK        -0.4224 
     55 C         -78.2504   23.3021  -77.7284 C.2       3 UNK         0.4895 
     56 O         -77.1129   23.7108  -77.9579 O.2       3 UNK        -0.5091 
     57 CA        -79.4584   24.0709  -78.2917 C.3       3 UNK         0.0250 
     58 CB        -79.9148   23.4541  -79.6233 C.3       3 UNK        -0.1996 
     59 N         -80.5990   24.1500  -77.3693 N.am      3 UNK        -0.4254 
     60 C         -80.5552   24.6659  -76.1329 C.2       2 UNK         0.5004 
     61 O         -79.5254   25.0842  -75.5962 O.2       2 UNK        -0.5226 
     62 CA        -81.8649   24.6487  -75.3336 C.3       2 UNK         0.0269 
     63 CB        -81.9867   23.3333  -74.5461 C.3       2 UNK        -0.1926 
     64 N         -81.9066   25.7672  -74.3930 N.am      2 UNK        -0.4687 
     65 C         -82.1303   27.0456  -74.7302 C.2       1 UNK         0.5165 
     66 O         -82.4321   27.3999  -75.8714 O.2       1 UNK        -0.5079 
     67 H67       -83.0642   26.9760  -69.3948 H         1 UNK         0.0900 
     68 H68       -81.4428   26.5558  -69.9497 H         1 UNK         0.0900 
     69 H69       -82.7661   25.4028  -70.1397 H         1 UNK         0.0900 
     70 H70       -80.9022   27.4831  -71.9214 H         1 UNK         0.2959 
     71 H71       -82.9244   28.6825  -73.6334 H         1 UNK         0.1079 
     72 H72       -80.9954   29.5600  -74.9246 H         1 UNK         0.0837 
     73 H73       -79.8904   28.5601  -74.0160 H         1 UNK         0.0837 
     74 H74       -78.7286   31.2261  -73.8128 H         1 UNK         0.0685 
     75 H75       -78.7635   31.7269  -72.1387 H         1 UNK         0.0685 
     76 H76       -79.3059   28.6673  -71.1505 H         1 UNK         0.1434 
     77 H77       -75.3891   26.9838  -71.5732 H         1 UNK         0.1329 
     78 H78       -76.3691   30.6330  -73.5807 H         1 UNK         0.1335 
     79 H79       -74.2681   29.6134  -73.9926 H         1 UNK         0.0680 
     80 H80       -74.1585   27.9107  -73.7412 H         1 UNK         0.0680 
     81 H81       -71.6113   30.8788  -71.4447 H         1 UNK         0.1032 
     82 H82       -73.2817   31.3501  -71.3396 H         1 UNK         0.1032 
     83 H83       -73.4841   31.6911  -73.6868 H         1 UNK         0.0461 
     84 H84       -70.2581   32.5120  -74.4402 H         1 UNK         0.3453 
     85 H85       -70.3064   34.1291  -73.7789 H         1 UNK         0.3453 
     86 H86       -71.2904   29.8467  -74.0270 H         1 UNK         0.2984 
     87 H87       -72.0595   29.6579  -77.4996 H         1 UNK         0.0554 
     88 H88       -69.6321   29.1545  -77.6754 H         1 UNK         0.0847 
     89 H89       -69.3376   29.9499  -76.1294 H         1 UNK         0.0847 
     90 H90       -69.9238   30.8771  -77.4985 H         1 UNK         0.0847 
     91 H91       -72.4021   27.7635  -76.5136 H         1 UNK         0.3141 
     92 H92       -70.4027   25.6054  -75.0678 H         1 UNK         0.0743 
     93 H93       -72.5611   26.3217  -73.0236 H         1 UNK         0.0784 
     94 H94       -71.7100   24.7897  -73.1579 H         1 UNK         0.0784 
     95 H95       -70.8391   26.2382  -72.6862 H         1 UNK         0.0784 
     96 H96       -73.3200   25.5695  -75.2147 H         1 UNK         0.3213 
     97 H97       -73.4725   25.3617  -78.7203 H         1 UNK         0.0855 
     98 H98       -73.8548   22.9194  -76.9022 H         1 UNK         0.0814 
     99 H99       -72.7830   22.9748  -78.2961 H         1 UNK         0.0814 
    100 H100      -74.5153   23.1290  -78.5239 H         1 UNK         0.0814 
    101 H101      -75.5381   24.7745  -76.9507 H         1 UNK         0.3105 
    102 H102      -76.1189   27.8360  -75.3490 H         1 UNK         0.0547 
    103 H103      -77.7375   26.7448  -77.7013 H         1 UNK         0.0837 
    104 H104      -78.3782   27.7520  -76.4026 H         1 UNK         0.0837 
    105 H105      -77.1780   28.3990  -77.5112 H         1 UNK         0.0837 
    106 H106      -77.8009   25.6207  -75.3834 H         1 UNK         0.3020 
    107 H107      -76.1156   23.5490  -73.0001 H         1 UNK         0.1245 
    108 H108      -78.4278   25.5316  -72.8816 H         1 UNK         0.0781 
    109 H109      -78.7133   23.8872  -72.3962 H         1 UNK         0.0781 
    110 H110      -78.9274   26.4537  -70.3487 H         1 UNK         0.0836 
    111 H111      -77.5094   26.7352  -69.3700 H         1 UNK         0.0836 
    112 H112      -78.3722   23.4712  -74.8956 H         1 UNK         0.3022 
    113 H113      -76.7652   21.1318  -76.9793 H         1 UNK         0.0747 
    114 H114      -78.6354   19.5724  -76.4829 H         1 UNK         0.0793 
    115 H115      -77.4616   19.5414  -75.1785 H         1 UNK         0.0793 
    116 H116      -78.9727   20.4155  -74.9695 H         1 UNK         0.0793 
    117 H117      -79.4903   21.9775  -76.8313 H         1 UNK         0.3047 
    118 H118      -79.1316   25.0924  -78.4901 H         1 UNK         0.0822 
    119 H119      -80.7005   24.0498  -80.0887 H         1 UNK         0.0807 
    120 H120      -80.2942   22.4399  -79.4924 H         1 UNK         0.0807 
    121 H121      -79.0876   23.4034  -80.3331 H         1 UNK         0.0807 
    122 H122      -81.4830   23.8114  -77.7222 H         1 UNK         0.2946 
    123 H123      -82.7083   24.7359  -76.0231 H         1 UNK         0.1144 
    124 H124      -82.9121   23.3012  -73.9704 H         1 UNK         0.0793 
    125 H125      -81.1557   23.1976  -73.8518 H         1 UNK         0.0793 
    126 H126      -81.9959   22.4725  -75.2163 H         1 UNK         0.0793 
    127 H127      -81.6411   25.5714  -73.4398 H         1 UNK         0.2896 
@<TRIPOS>BOND
     1    1    2 1    
     2    1   67 1    
     3    1   68 1    
     4    1   69 1    
     5    2    3 2    
     6    2    4 am   BACKBONE|DICT|INTERRES
     7    4    5 1    
     8    4   70 1    
     9    5    6 1    
    10    5   65 1    
    11    5   71 1    
    12    6    7 1    
    13    6   72 1    
    14    6   73 1    
    15    7    8 1    
    16    8    9 1    
    17    8   74 1    
    18    8   75 1    
    19    9   10 ar   
    20    9   14 ar   
    21   10   11 ar   
    22   10   76 1    
    23   11   12 ar   
    24   11   48 1    
    25   12   13 ar   
    26   12   77 1    
    27   13   14 ar   
    28   13   15 1    
    29   14   78 1    
    30   15   16 1    
    31   15   79 1    
    32   15   80 1    
    33   16   17 1    
    34   17   18 1    
    35   17   81 1    
    36   17   82 1    
    37   18   19 1    
    38   18   22 1    
    39   18   83 1    
    40   19   20 am   BACKBONE|DICT|INTERRES
    41   19   21 2    
    42   20   84 1    
    43   20   85 1    
    44   22   23 am   BACKBONE|DICT|INTERRES
    45   22   86 1    
    46   23   24 2    
    47   23   25 1    
    48   25   26 1    
    49   25   27 1    
    50   25   87 1    
    51   26   88 1    
    52   26   89 1    
    53   26   90 1    
    54   27   28 am   BACKBONE|DICT|INTERRES
    55   27   91 1    
    56   28   29 2    
    57   28   30 1    
    58   30   31 1    
    59   30   32 1    
    60   30   92 1    
    61   31   93 1    
    62   31   94 1    
    63   31   95 1    
    64   32   33 am   BACKBONE|DICT|INTERRES
    65   32   96 1    
    66   33   34 2    
    67   33   35 1    
    68   35   36 1    
    69   35   37 1    
    70   35   97 1    
    71   36   98 1    
    72   36   99 1    
    73   36  100 1    
    74   37   38 am   BACKBONE|DICT|INTERRES
    75   37  101 1    
    76   38   39 2    
    77   38   40 1    
    78   40   41 1    
    79   40   42 1    
    80   40  102 1    
    81   41  103 1    
    82   41  104 1    
    83   41  105 1    
    84   42   43 am   BACKBONE|DICT|INTERRES
    85   42  106 1    
    86   43   44 2    
    87   43   45 1    
    88   45   46 1    
    89   45   49 1    
    90   45  107 1    
    91   46   47 1    
    92   46  108 1    
    93   46  109 1    
    94   47   48 1    
    95   48  110 1    
    96   48  111 1    
    97   49   50 am   BACKBONE|DICT|INTERRES
    98   49  112 1    
    99   50   51 2    
   100   50   52 1    
   101   52   53 1    
   102   52   54 1    
   103   52  113 1    
   104   53  114 1    
   105   53  115 1    
   106   53  116 1    
   107   54   55 am   BACKBONE|DICT|INTERRES
   108   54  117 1    
   109   55   56 2    
   110   55   57 1    
   111   57   58 1    
   112   57   59 1    
   113   57  118 1    
   114   58  119 1    
   115   58  120 1    
   116   58  121 1    
   117   59   60 am   BACKBONE|DICT|INTERRES
   118   59  122 1    
   119   60   61 2    
   120   60   62 1    
   121   62   63 1    
   122   62   64 1    
   123   62  123 1    
   124   63  124 1    
   125   63  125 1    
   126   63  126 1    
   127   64   65 am   BACKBONE|DICT|INTERRES
   128   64  127 1    
   129   65   66 2    
@<TRIPOS>SUBSTRUCTURE
     1 UNK         1 GROUP             0       ****    0 ROOT    
