@<TRIPOS>MOLECULE
3R135
127   129    1
SMALL
USER_CHARGES


@<TRIPOS>ATOM
      1 CA        -79.0904   21.8535  -70.1702 C.3       0 UNK        -0.1998 
      2 C         -80.3502   22.5429  -70.6704 C.2       0 UNK         0.4909 
      3 O         -81.4047   21.9131  -70.7547 O.2       0 UNK        -0.5240 
      4 N         -80.2486   23.8289  -71.0277 N.am      1 UNK        -0.4739 
      5 CA        -81.3318   24.6935  -71.5202 C.3       1 UNK         0.0864 
      6 C6        -81.0100   26.1902  -71.2450 C.3       11 UNK        -0.0881 
      7 S7        -79.3989   26.7415  -71.9148 S.3       11 UNK        -0.2682 
      8 C8        -79.5432   28.5473  -71.7206 C.3       11 UNK         0.0289 
      9 C9        -78.3978   29.2742  -72.4136 C.ar      11 UNK        -0.0687 
     10 C10       -78.6307   30.0420  -73.5602 C.ar      11 UNK        -0.0823 
     11 C11       -77.5784   30.6791  -74.2281 C.ar      11 UNK        -0.0830 
     12 C12       -76.2826   30.5665  -73.7056 C.ar      11 UNK        -0.1021 
     13 C13       -76.0401   29.8262  -72.5444 C.ar      11 UNK        -0.0753 
     14 C14       -77.1002   29.1791  -71.9056 C.ar      11 UNK        -0.0933 
     15 C15       -74.6307   29.7178  -71.9862 C.3       11 UNK         0.0166 
     16 S16       -74.1065   31.2720  -71.1949 S.3       11 UNK        -0.2615 
     17 C17       -72.5878   30.7618  -70.3145 C.3       11 UNK        -0.0865 
     18 CA        -71.2798   31.0780  -71.1020 C.3       10 UNK         0.0862 
     19 C         -69.9970   30.9414  -70.2232 C.2       10 UNK         0.5551 
     20 N         -68.8575   30.5463  -70.7779 N.am      10 UNK        -0.7319 
     21 O         -70.0223   31.2293  -69.0288 O.2       10 UNK        -0.5018 
     22 N         -71.2176   30.3823  -72.4021 N.am      10 UNK        -0.4509 
     23 C         -71.1874   29.0553  -72.5753 C.2       10 UNK         0.4899 
     24 O         -71.1231   28.2316  -71.6594 O.2       10 UNK        -0.4839 
     25 CA        -71.2738   28.5590  -74.0204 C.3       9 UNK         0.0222 
     26 CB        -69.8792   28.2291  -74.5773 C.3       9 UNK        -0.1966 
     27 N         -72.1040   27.3578  -74.0228 N.am      9 UNK        -0.4218 
     28 C         -73.1087   27.1101  -74.8672 C.2       9 UNK         0.5020 
     29 O         -73.4230   27.8451  -75.8055 O.2       9 UNK        -0.5274 
     30 CA        -73.9365   25.8466  -74.5837 C.3       8 UNK         0.0270 
     31 CB        -75.1962   26.2021  -73.7741 C.3       8 UNK        -0.1976 
     32 N         -74.3271   25.1834  -75.8283 N.am      8 UNK        -0.4313 
     33 C         -73.4821   24.5137  -76.6253 C.2       8 UNK         0.5041 
     34 O         -72.3009   24.3082  -76.3410 O.2       8 UNK        -0.5577 
     35 CA        -74.0206   23.9893  -77.9651 C.3       7 UNK         0.0284 
     36 CB        -74.5929   22.5686  -77.8250 C.3       7 UNK        -0.1958 
     37 N         -75.0368   24.8754  -78.5346 N.am      7 UNK        -0.4454 
     38 C         -75.0567   25.3015  -79.8034 C.2       7 UNK         0.5089 
     39 O         -74.2347   24.9695  -80.6586 O.2       7 UNK        -0.5125 
     40 CA        -76.1890   26.2679  -80.1874 C.3       6 UNK         0.0408 
     41 CB        -77.4558   25.4856  -80.5682 C.3       6 UNK        -0.1791 
     42 N         -76.5114   27.2113  -79.1173 N.am      6 UNK        -0.4762 
     43 C         -75.7389   28.2228  -78.7011 C.2       6 UNK         0.5007 
     44 O         -74.6683   28.5095  -79.2386 O.2       6 UNK        -0.5032 
     45 CA        -76.2108   29.0559  -77.4830 C.3       5 UNK         0.0783 
     46 C46       -76.7810   30.4375  -77.9038 C.3       11 UNK        -0.0857 
     47 S47       -76.4946   31.7250  -76.6405 S.3       11 UNK        -0.2512 
     48 C48       -77.8890   31.5159  -75.4741 C.3       11 UNK         0.0225 
     49 N         -77.0983   28.3423  -76.5508 N.am      5 UNK        -0.4615 
     50 C         -78.3377   27.8782  -76.7629 C.2       4 UNK         0.5053 
     51 O         -78.9241   27.9267  -77.8450 O.2       4 UNK        -0.5105 
     52 CA        -79.0307   27.2255  -75.5587 C.3       4 UNK         0.0263 
     53 CB        -80.4747   27.7476  -75.4366 C.3       4 UNK        -0.1981 
     54 N         -79.0495   25.7568  -75.5541 N.am      4 UNK        -0.4224 
     55 C         -78.0901   24.9027  -75.9501 C.2       3 UNK         0.4895 
     56 O         -77.0387   25.2407  -76.4985 O.2       3 UNK        -0.5091 
     57 CA        -78.2947   23.4045  -75.6481 C.3       3 UNK         0.0250 
     58 CB        -77.1838   22.8881  -74.7155 C.3       3 UNK        -0.1996 
     59 N         -79.5801   23.0913  -75.0232 N.am      3 UNK        -0.4254 
     60 C         -80.7531   22.9433  -75.6525 C.2       2 UNK         0.5004 
     61 O         -80.8939   23.0293  -76.8720 O.2       2 UNK        -0.5226 
     62 CA        -81.9782   22.6656  -74.7582 C.3       2 UNK         0.0269 
     63 CB        -82.3122   21.1653  -74.7530 C.3       2 UNK        -0.1926 
     64 N         -81.7928   23.1208  -73.3734 N.am      2 UNK        -0.4687 
     65 C         -81.7104   24.4040  -72.9958 C.2       1 UNK         0.5165 
     66 O         -81.8858   25.3298  -73.7869 O.2       1 UNK        -0.5079 
     67 H67       -79.2431   21.4845  -69.1564 H         1 UNK         0.0900 
     68 H68       -78.8479   21.0049  -70.8091 H         1 UNK         0.0900 
     69 H69       -78.2336   22.5270  -70.1605 H         1 UNK         0.0900 
     70 H70       -79.3516   24.2903  -70.9606 H         1 UNK         0.2959 
     71 H71       -82.2299   24.4547  -70.9459 H         1 UNK         0.1079 
     72 H72       -81.8035   26.8327  -71.6317 H         1 UNK         0.0837 
     73 H73       -80.9959   26.3627  -70.1677 H         1 UNK         0.0837 
     74 H74       -79.5472   28.7978  -70.6588 H         1 UNK         0.0685 
     75 H75       -80.5022   28.8775  -72.1226 H         1 UNK         0.0685 
     76 H76       -79.6385   30.1392  -73.9383 H         1 UNK         0.1434 
     77 H77       -75.4537   31.0684  -74.1845 H         1 UNK         0.1329 
     78 H78       -76.9186   28.5939  -71.0144 H         1 UNK         0.1335 
     79 H79       -73.9532   29.4760  -72.8034 H         1 UNK         0.0680 
     80 H80       -74.5640   28.8980  -71.2693 H         1 UNK         0.0680 
     81 H81       -72.5930   31.2979  -69.3638 H         1 UNK         0.1032 
     82 H82       -72.6416   29.7049  -70.0501 H         1 UNK         0.1032 
     83 H83       -71.3123   32.1390  -71.3521 H         1 UNK         0.0461 
     84 H84       -68.0294   30.4705  -70.2084 H         1 UNK         0.3453 
     85 H85       -68.8214   30.3166  -71.7578 H         1 UNK         0.3453 
     86 H86       -71.2484   30.9810  -73.2150 H         1 UNK         0.2984 
     87 H87       -71.7304   29.3391  -74.6337 H         1 UNK         0.0554 
     88 H88       -69.9413   27.8594  -75.6010 H         1 UNK         0.0847 
     89 H89       -69.3733   27.4705  -73.9785 H         1 UNK         0.0847 
     90 H90       -69.2429   29.1148  -74.5903 H         1 UNK         0.0847 
     91 H91       -71.9548   26.7439  -73.2319 H         1 UNK         0.3141 
     92 H92       -73.3344   25.1480  -73.9985 H         1 UNK         0.0743 
     93 H93       -74.9330   26.6783  -72.8288 H         1 UNK         0.0784 
     94 H94       -75.8448   26.8918  -74.3137 H         1 UNK         0.0784 
     95 H95       -75.7795   25.3142  -73.5337 H         1 UNK         0.0784 
     96 H96       -75.2974   25.2960  -76.1115 H         1 UNK         0.3213 
     97 H97       -73.1589   23.9383  -78.6345 H         1 UNK         0.0855 
     98 H98       -75.5199   22.5590  -77.2534 H         1 UNK         0.0814 
     99 H99       -73.8865   21.9066  -77.3223 H         1 UNK         0.0814 
    100 H100      -74.8037   22.1345  -78.8024 H         1 UNK         0.0814 
    101 H101      -75.7754   25.1902  -77.9114 H         1 UNK         0.3105 
    102 H102      -75.8635   26.8397  -81.0589 H         1 UNK         0.0547 
    103 H103      -77.8454   24.9122  -79.7258 H         1 UNK         0.0837 
    104 H104      -78.2457   26.1534  -80.9122 H         1 UNK         0.0837 
    105 H105      -77.2519   24.7818  -81.3764 H         1 UNK         0.0837 
    106 H106      -77.4096   27.1015  -78.6556 H         1 UNK         0.3020 
    107 H107      -75.2945   29.2385  -76.9195 H         1 UNK         0.1245 
    108 H108      -77.8414   30.3829  -78.1533 H         1 UNK         0.0781 
    109 H109      -76.2897   30.7991  -78.8095 H         1 UNK         0.0781 
    110 H110      -78.1991   32.5067  -75.1401 H         1 UNK         0.0836 
    111 H111      -78.7416   31.0952  -76.0093 H         1 UNK         0.0836 
    112 H112      -76.7084   28.2220  -75.6277 H         1 UNK         0.3022 
    113 H113      -78.4852   27.5239  -74.6642 H         1 UNK         0.0747 
    114 H114      -80.5356   28.8170  -75.6407 H         1 UNK         0.0793 
    115 H115      -80.8687   27.5953  -74.4333 H         1 UNK         0.0793 
    116 H116      -81.1426   27.2502  -76.1407 H         1 UNK         0.0793 
    117 H117      -79.8697   25.3516  -75.1242 H         1 UNK         0.3047 
    118 H118      -78.2237   22.8737  -76.5999 H         1 UNK         0.0822 
    119 H119      -77.2485   23.3388  -73.7245 H         1 UNK         0.0807 
    120 H120      -76.1908   23.1111  -75.1041 H         1 UNK         0.0807 
    121 H121      -77.2425   21.8063  -74.5940 H         1 UNK         0.0807 
    122 H122      -79.5792   22.9988  -74.0180 H         1 UNK         0.2946 
    123 H123      -82.8235   23.2084  -75.1877 H         1 UNK         0.1144 
    124 H124      -82.4786   20.7985  -75.7669 H         1 UNK         0.0793 
    125 H125      -83.2199   20.9633  -74.1839 H         1 UNK         0.0793 
    126 H126      -81.5052   20.5732  -74.3196 H         1 UNK         0.0793 
    127 H127      -81.6760   22.4131  -72.6540 H         1 UNK         0.2896 
@<TRIPOS>BOND
     1    1    2 1    
     2    1   67 1    
     3    1   68 1    
     4    1   69 1    
     5    2    3 2    
     6    2    4 am   BACKBONE|DICT|INTERRES
     7    4    5 1    
     8    4   70 1    
     9    5    6 1    
    10    5   65 1    
    11    5   71 1    
    12    6    7 1    
    13    6   72 1    
    14    6   73 1    
    15    7    8 1    
    16    8    9 1    
    17    8   74 1    
    18    8   75 1    
    19    9   10 ar   
    20    9   14 ar   
    21   10   11 ar   
    22   10   76 1    
    23   11   12 ar   
    24   11   48 1    
    25   12   13 ar   
    26   12   77 1    
    27   13   14 ar   
    28   13   15 1    
    29   14   78 1    
    30   15   16 1    
    31   15   79 1    
    32   15   80 1    
    33   16   17 1    
    34   17   18 1    
    35   17   81 1    
    36   17   82 1    
    37   18   19 1    
    38   18   22 1    
    39   18   83 1    
    40   19   20 am   BACKBONE|DICT|INTERRES
    41   19   21 2    
    42   20   84 1    
    43   20   85 1    
    44   22   23 am   BACKBONE|DICT|INTERRES
    45   22   86 1    
    46   23   24 2    
    47   23   25 1    
    48   25   26 1    
    49   25   27 1    
    50   25   87 1    
    51   26   88 1    
    52   26   89 1    
    53   26   90 1    
    54   27   28 am   BACKBONE|DICT|INTERRES
    55   27   91 1    
    56   28   29 2    
    57   28   30 1    
    58   30   31 1    
    59   30   32 1    
    60   30   92 1    
    61   31   93 1    
    62   31   94 1    
    63   31   95 1    
    64   32   33 am   BACKBONE|DICT|INTERRES
    65   32   96 1    
    66   33   34 2    
    67   33   35 1    
    68   35   36 1    
    69   35   37 1    
    70   35   97 1    
    71   36   98 1    
    72   36   99 1    
    73   36  100 1    
    74   37   38 am   BACKBONE|DICT|INTERRES
    75   37  101 1    
    76   38   39 2    
    77   38   40 1    
    78   40   41 1    
    79   40   42 1    
    80   40  102 1    
    81   41  103 1    
    82   41  104 1    
    83   41  105 1    
    84   42   43 am   BACKBONE|DICT|INTERRES
    85   42  106 1    
    86   43   44 2    
    87   43   45 1    
    88   45   46 1    
    89   45   49 1    
    90   45  107 1    
    91   46   47 1    
    92   46  108 1    
    93   46  109 1    
    94   47   48 1    
    95   48  110 1    
    96   48  111 1    
    97   49   50 am   BACKBONE|DICT|INTERRES
    98   49  112 1    
    99   50   51 2    
   100   50   52 1    
   101   52   53 1    
   102   52   54 1    
   103   52  113 1    
   104   53  114 1    
   105   53  115 1    
   106   53  116 1    
   107   54   55 am   BACKBONE|DICT|INTERRES
   108   54  117 1    
   109   55   56 2    
   110   55   57 1    
   111   57   58 1    
   112   57   59 1    
   113   57  118 1    
   114   58  119 1    
   115   58  120 1    
   116   58  121 1    
   117   59   60 am   BACKBONE|DICT|INTERRES
   118   59  122 1    
   119   60   61 2    
   120   60   62 1    
   121   62   63 1    
   122   62   64 1    
   123   62  123 1    
   124   63  124 1    
   125   63  125 1    
   126   63  126 1    
   127   64   65 am   BACKBONE|DICT|INTERRES
   128   64  127 1    
   129   65   66 2    
@<TRIPOS>SUBSTRUCTURE
     1 UNK         1 GROUP             0       ****    0 ROOT    
