@<TRIPOS>MOLECULE
3R135
127   129    1
SMALL
USER_CHARGES


@<TRIPOS>ATOM
      1 CA        -85.1686   27.1144  -72.5968 C.3       0 UNK        -0.1998 
      2 C         -83.9632   27.3307  -73.4988 C.2       0 UNK         0.4909 
      3 O         -84.0979   27.9130  -74.5762 O.2       0 UNK        -0.5240 
      4 N         -82.7838   26.8576  -73.0770 N.am      1 UNK        -0.4739 
      5 CA        -81.5054   26.9810  -73.7920 C.3       1 UNK         0.0864 
      6 C6        -80.3015   26.9754  -72.8131 C.3       11 UNK        -0.0881 
      7 S7        -80.4225   28.3164  -71.5794 S.3       11 UNK        -0.2682 
      8 C8        -79.3191   29.5918  -72.2856 C.3       11 UNK         0.0289 
      9 C9        -77.8261   29.2750  -72.1950 C.ar      11 UNK        -0.0687 
     10 C10       -77.3002   28.4851  -71.1658 C.ar      11 UNK        -0.0823 
     11 C11       -75.9337   28.2001  -71.1083 C.ar      11 UNK        -0.0830 
     12 C12       -75.0760   28.7474  -72.0651 C.ar      11 UNK        -0.1021 
     13 C13       -75.5807   29.5552  -73.0876 C.ar      11 UNK        -0.0753 
     14 C14       -76.9545   29.8118  -73.1484 C.ar      11 UNK        -0.0933 
     15 C15       -74.6485   30.1194  -74.1494 C.3       11 UNK         0.0166 
     16 S16       -74.2933   31.8835  -73.8794 S.3       11 UNK        -0.2615 
     17 C17       -73.1154   31.8183  -72.4848 C.3       11 UNK        -0.0865 
     18 CA        -71.6881   32.3018  -72.8773 C.3       10 UNK         0.0862 
     19 C         -70.7564   32.4841  -71.6383 C.2       10 UNK         0.5551 
     20 N         -69.4515   32.2696  -71.7562 N.am      10 UNK        -0.7319 
     21 O         -71.2135   32.8593  -70.5611 O.2       10 UNK        -0.5018 
     22 N         -71.0947   31.5344  -73.9914 N.am      10 UNK        -0.4509 
     23 C         -70.7738   30.2344  -73.9741 C.2       10 UNK         0.4899 
     24 O         -70.9348   29.4919  -73.0029 O.2       10 UNK        -0.4839 
     25 CA        -70.1114   29.6900  -75.2523 C.3       9 UNK         0.0222 
     26 CB        -68.5957   29.9491  -75.2230 C.3       9 UNK        -0.1966 
     27 N         -70.3455   28.2527  -75.4042 N.am      9 UNK        -0.4218 
     28 C         -71.5094   27.7133  -75.7865 C.2       9 UNK         0.5020 
     29 O         -72.4735   28.3781  -76.1735 O.2       9 UNK        -0.5274 
     30 CA        -71.5969   26.1786  -75.7093 C.3       8 UNK         0.0270 
     31 CB        -71.4795   25.6926  -74.2522 C.3       8 UNK        -0.1976 
     32 N         -72.8667   25.7049  -76.2617 N.am      8 UNK        -0.4313 
     33 C         -73.0678   25.3726  -77.5451 C.2       8 UNK         0.5041 
     34 O         -72.1684   25.3430  -78.3875 O.2       8 UNK        -0.5577 
     35 CA        -74.4991   24.9945  -77.9793 C.3       7 UNK         0.0284 
     36 CB        -74.6195   23.4753  -78.1813 C.3       7 UNK        -0.1958 
     37 N         -75.5233   25.4408  -77.0316 N.am      7 UNK        -0.4454 
     38 C         -75.9496   26.7099  -76.9360 C.2       7 UNK         0.5089 
     39 O         -75.6224   27.5934  -77.7285 O.2       7 UNK        -0.5125 
     40 CA        -76.8912   27.0764  -75.7696 C.3       6 UNK         0.0408 
     41 CB        -78.3106   27.3412  -76.2921 C.3       6 UNK        -0.1791 
     42 N         -76.9478   26.0953  -74.6790 N.am      6 UNK        -0.4762 
     43 C         -75.9048   25.7214  -73.9188 C.2       6 UNK         0.5007 
     44 O         -74.7725   26.1788  -74.0613 O.2       6 UNK        -0.5032 
     45 CA        -76.1325   24.5578  -72.9236 C.3       5 UNK         0.0783 
     46 C46       -76.3935   25.0349  -71.4732 C.3       11 UNK        -0.0857 
     47 S47       -74.8791   25.6583  -70.6602 S.3       11 UNK        -0.2512 
     48 C48       -75.3926   27.2866  -70.0179 C.3       11 UNK         0.0225 
     49 N         -77.1764   23.6303  -73.3797 N.am      5 UNK        -0.4615 
     50 C         -77.1053   22.9110  -74.5080 C.2       4 UNK         0.5053 
     51 O         -76.1325   22.9412  -75.2616 O.2       4 UNK        -0.5105 
     52 CA        -78.3282   22.0668  -74.8953 C.3       4 UNK         0.0263 
     53 CB        -79.3639   21.8956  -73.7643 C.3       4 UNK        -0.1981 
     54 N         -78.9745   22.6992  -76.0428 N.am      4 UNK        -0.4224 
     55 C         -78.6924   22.4385  -77.3295 C.2       3 UNK         0.4895 
     56 O         -77.8975   21.5709  -77.6939 O.2       3 UNK        -0.5091 
     57 CA        -79.4485   23.2666  -78.3847 C.3       3 UNK         0.0250 
     58 CB        -79.5930   22.5319  -79.7309 C.3       3 UNK        -0.1996 
     59 N         -80.7731   23.6129  -77.8741 N.am      3 UNK        -0.4254 
     60 C         -81.2828   24.8458  -77.8034 C.2       2 UNK         0.5004 
     61 O         -80.7743   25.8355  -78.3318 O.2       2 UNK        -0.5226 
     62 CA        -82.5597   25.0177  -76.9588 C.3       2 UNK         0.0269 
     63 CB        -83.1622   23.6935  -76.4329 C.3       2 UNK        -0.1926 
     64 N         -82.3496   25.9393  -75.8369 N.am      2 UNK        -0.4687 
     65 C         -81.3955   25.9008  -74.8926 C.2       1 UNK         0.5165 
     66 O         -80.4921   25.0587  -74.8536 O.2       1 UNK        -0.5079 
     67 H67       -85.6100   28.0730  -72.3254 H         1 UNK         0.0900 
     68 H68       -85.9243   26.5252  -73.1155 H         1 UNK         0.0900 
     69 H69       -84.9017   26.5920  -71.6783 H         1 UNK         0.0900 
     70 H70       -82.7347   26.3771  -72.1899 H         1 UNK         0.2959 
     71 H71       -81.4906   27.9433  -74.3092 H         1 UNK         0.1079 
     72 H72       -80.2482   26.0256  -72.2777 H         1 UNK         0.0837 
     73 H73       -79.3566   27.0708  -73.3483 H         1 UNK         0.0837 
     74 H74       -79.4990   30.5296  -71.7589 H         1 UNK         0.0685 
     75 H75       -79.6068   29.7610  -73.3245 H         1 UNK         0.0685 
     76 H76       -77.9555   28.0724  -70.4120 H         1 UNK         0.1434 
     77 H77       -74.0192   28.5190  -72.0295 H         1 UNK         0.1329 
     78 H78       -77.3429   30.4327  -73.9442 H         1 UNK         0.1335 
     79 H79       -73.7142   29.5583  -74.1739 H         1 UNK         0.0680 
     80 H80       -75.1004   29.9971  -75.1346 H         1 UNK         0.0680 
     81 H81       -73.0753   30.8129  -72.0652 H         1 UNK         0.1032 
     82 H82       -73.5286   32.4489  -71.6957 H         1 UNK         0.1032 
     83 H83       -71.7998   33.3138  -73.2681 H         1 UNK         0.0461 
     84 H84       -68.8545   32.4008  -70.9548 H         1 UNK         0.3453 
     85 H85       -69.0611   31.9724  -72.6354 H         1 UNK         0.3453 
     86 H86       -70.9074   32.0675  -74.8285 H         1 UNK         0.2984 
     87 H87       -70.5364   30.2057  -76.1164 H         1 UNK         0.0554 
     88 H88       -68.3804   31.0165  -75.1588 H         1 UNK         0.0847 
     89 H89       -68.1119   29.5794  -76.1274 H         1 UNK         0.0847 
     90 H90       -68.1191   29.4690  -74.3671 H         1 UNK         0.0847 
     91 H91       -69.6171   27.6408  -75.0662 H         1 UNK         0.3141 
     92 H92       -70.7683   25.7578  -76.2827 H         1 UNK         0.0743 
     93 H93       -70.4858   25.8877  -73.8481 H         1 UNK         0.0784 
     94 H94       -72.1952   26.1934  -73.5988 H         1 UNK         0.0784 
     95 H95       -71.6513   24.6188  -74.1751 H         1 UNK         0.0784 
     96 H96       -73.6681   25.7953  -75.6431 H         1 UNK         0.3213 
     97 H97       -74.6849   25.4757  -78.9421 H         1 UNK         0.0855 
     98 H98       -74.3871   22.9267  -77.2681 H         1 UNK         0.0814 
     99 H99       -73.9282   23.1296  -78.9510 H         1 UNK         0.0814 
    100 H100      -75.6238   23.1919  -78.4967 H         1 UNK         0.0814 
    101 H101      -75.8324   24.7604  -76.3457 H         1 UNK         0.3105 
    102 H102      -76.5103   28.0066  -75.3486 H         1 UNK         0.0547 
    103 H103      -78.9389   27.7959  -75.5284 H         1 UNK         0.0837 
    104 H104      -78.7884   26.4219  -76.6293 H         1 UNK         0.0837 
    105 H105      -78.2989   28.0286  -77.1392 H         1 UNK         0.0837 
    106 H106      -77.8342   25.6343  -74.5305 H         1 UNK         0.3020 
    107 H107      -75.2029   23.9829  -72.9182 H         1 UNK         0.1245 
    108 H108      -76.7421   24.1976  -70.8666 H         1 UNK         0.0781 
    109 H109      -77.1973   25.7703  -71.4429 H         1 UNK         0.0781 
    110 H110      -74.5355   27.7644  -69.5413 H         1 UNK         0.0836 
    111 H111      -76.1340   27.1387  -69.2311 H         1 UNK         0.0836 
    112 H112      -78.0092   23.5634  -72.8131 H         1 UNK         0.3022 
    113 H113      -77.9635   21.0746  -75.1696 H         1 UNK         0.0747 
    114 H114      -80.1740   21.2376  -74.0795 H         1 UNK         0.0793 
    115 H115      -78.9128   21.4409  -72.8811 H         1 UNK         0.0793 
    116 H116      -79.8149   22.8417  -73.4630 H         1 UNK         0.0793 
    117 H117      -79.6025   23.4674  -75.8261 H         1 UNK         0.3047 
    118 H118      -78.8560   24.1700  -78.5461 H         1 UNK         0.0822 
    119 H119      -80.1325   23.1406  -80.4567 H         1 UNK         0.0807 
    120 H120      -80.1291   21.5888  -79.6193 H         1 UNK         0.0807 
    121 H121      -78.6169   22.3062  -80.1625 H         1 UNK         0.0807 
    122 H122      -81.2708   22.8671  -77.4072 H         1 UNK         0.2946 
    123 H123      -83.2960   25.4822  -77.6170 H         1 UNK         0.1144 
    124 H124      -82.4941   23.1805  -75.7396 H         1 UNK         0.0793 
    125 H125      -83.3947   23.0086  -77.2497 H         1 UNK         0.0793 
    126 H126      -84.0973   23.8781  -75.9037 H         1 UNK         0.0793 
    127 H127      -83.0379   26.6809  -75.7452 H         1 UNK         0.2896 
@<TRIPOS>BOND
     1    1    2 1    
     2    1   67 1    
     3    1   68 1    
     4    1   69 1    
     5    2    3 2    
     6    2    4 am   BACKBONE|DICT|INTERRES
     7    4    5 1    
     8    4   70 1    
     9    5    6 1    
    10    5   65 1    
    11    5   71 1    
    12    6    7 1    
    13    6   72 1    
    14    6   73 1    
    15    7    8 1    
    16    8    9 1    
    17    8   74 1    
    18    8   75 1    
    19    9   10 ar   
    20    9   14 ar   
    21   10   11 ar   
    22   10   76 1    
    23   11   12 ar   
    24   11   48 1    
    25   12   13 ar   
    26   12   77 1    
    27   13   14 ar   
    28   13   15 1    
    29   14   78 1    
    30   15   16 1    
    31   15   79 1    
    32   15   80 1    
    33   16   17 1    
    34   17   18 1    
    35   17   81 1    
    36   17   82 1    
    37   18   19 1    
    38   18   22 1    
    39   18   83 1    
    40   19   20 am   BACKBONE|DICT|INTERRES
    41   19   21 2    
    42   20   84 1    
    43   20   85 1    
    44   22   23 am   BACKBONE|DICT|INTERRES
    45   22   86 1    
    46   23   24 2    
    47   23   25 1    
    48   25   26 1    
    49   25   27 1    
    50   25   87 1    
    51   26   88 1    
    52   26   89 1    
    53   26   90 1    
    54   27   28 am   BACKBONE|DICT|INTERRES
    55   27   91 1    
    56   28   29 2    
    57   28   30 1    
    58   30   31 1    
    59   30   32 1    
    60   30   92 1    
    61   31   93 1    
    62   31   94 1    
    63   31   95 1    
    64   32   33 am   BACKBONE|DICT|INTERRES
    65   32   96 1    
    66   33   34 2    
    67   33   35 1    
    68   35   36 1    
    69   35   37 1    
    70   35   97 1    
    71   36   98 1    
    72   36   99 1    
    73   36  100 1    
    74   37   38 am   BACKBONE|DICT|INTERRES
    75   37  101 1    
    76   38   39 2    
    77   38   40 1    
    78   40   41 1    
    79   40   42 1    
    80   40  102 1    
    81   41  103 1    
    82   41  104 1    
    83   41  105 1    
    84   42   43 am   BACKBONE|DICT|INTERRES
    85   42  106 1    
    86   43   44 2    
    87   43   45 1    
    88   45   46 1    
    89   45   49 1    
    90   45  107 1    
    91   46   47 1    
    92   46  108 1    
    93   46  109 1    
    94   47   48 1    
    95   48  110 1    
    96   48  111 1    
    97   49   50 am   BACKBONE|DICT|INTERRES
    98   49  112 1    
    99   50   51 2    
   100   50   52 1    
   101   52   53 1    
   102   52   54 1    
   103   52  113 1    
   104   53  114 1    
   105   53  115 1    
   106   53  116 1    
   107   54   55 am   BACKBONE|DICT|INTERRES
   108   54  117 1    
   109   55   56 2    
   110   55   57 1    
   111   57   58 1    
   112   57   59 1    
   113   57  118 1    
   114   58  119 1    
   115   58  120 1    
   116   58  121 1    
   117   59   60 am   BACKBONE|DICT|INTERRES
   118   59  122 1    
   119   60   61 2    
   120   60   62 1    
   121   62   63 1    
   122   62   64 1    
   123   62  123 1    
   124   63  124 1    
   125   63  125 1    
   126   63  126 1    
   127   64   65 am   BACKBONE|DICT|INTERRES
   128   64  127 1    
   129   65   66 2    
@<TRIPOS>SUBSTRUCTURE
     1 UNK         1 GROUP             0       ****    0 ROOT    
