@<TRIPOS>MOLECULE
3R135
127   129    1
SMALL
USER_CHARGES


@<TRIPOS>ATOM
      1 CA        -85.3889   26.3656  -72.0705 C.3       0 UNK        -0.1998 
      2 C         -83.9614   26.8602  -72.2476 C.2       0 UNK         0.4909 
      3 O         -83.7535   27.9627  -72.7541 O.2       0 UNK        -0.5240 
      4 N         -82.9734   26.0492  -71.8437 N.am      1 UNK        -0.4739 
      5 CA        -81.5393   26.3621  -71.9324 C.3       1 UNK         0.0864 
      6 C6        -80.7635   25.7458  -70.7385 C.3       11 UNK        -0.0881 
      7 S7        -79.1411   26.4953  -70.3420 S.3       11 UNK        -0.2682 
      8 C8        -79.4766   28.2733  -70.1123 C.3       11 UNK         0.0289 
      9 C9        -78.8172   29.1217  -71.1967 C.ar      11 UNK        -0.0687 
     10 C10       -79.5557   29.5884  -72.2900 C.ar      11 UNK        -0.0823 
     11 C11       -78.9590   30.3921  -73.2665 C.ar      11 UNK        -0.0830 
     12 C12       -77.6161   30.7518  -73.1299 C.ar      11 UNK        -0.1021 
     13 C13       -76.8637   30.2964  -72.0440 C.ar      11 UNK        -0.0753 
     14 C14       -77.4671   29.4753  -71.0847 C.ar      11 UNK        -0.0933 
     15 C15       -75.4127   30.7331  -71.8990 C.3       11 UNK         0.0166 
     16 S16       -74.3248   29.9016  -73.0979 S.3       11 UNK        -0.2615 
     17 C17       -74.0272   28.3044  -72.2681 C.3       11 UNK        -0.0865 
     18 CA        -72.6274   28.2339  -71.5919 C.3       10 UNK         0.0862 
     19 C         -72.4687   26.9874  -70.6666 C.2       10 UNK         0.5551 
     20 N         -71.2829   26.4040  -70.5424 N.am      10 UNK        -0.7319 
     21 O         -73.4233   26.5641  -70.0198 O.2       10 UNK        -0.5018 
     22 N         -71.5224   28.4518  -72.5472 N.am      10 UNK        -0.4509 
     23 C         -71.1952   27.6537  -73.5716 C.2       10 UNK         0.4899 
     24 O         -71.7394   26.5755  -73.8211 O.2       10 UNK        -0.4839 
     25 CA        -70.0386   28.1345  -74.4538 C.3       9 UNK         0.0222 
     26 CB        -68.6767   27.8225  -73.8063 C.3       9 UNK        -0.1966 
     27 N         -70.1373   27.4718  -75.7503 N.am      9 UNK        -0.4218 
     28 C         -69.6772   27.9486  -76.9122 C.2       9 UNK         0.5020 
     29 O         -69.0606   29.0105  -77.0160 O.2       9 UNK        -0.5274 
     30 CA        -69.9251   27.1057  -78.1794 C.3       8 UNK         0.0270 
     31 CB        -68.6307   26.3946  -78.6095 C.3       8 UNK        -0.1976 
     32 N         -70.9950   26.1091  -78.0496 N.am      8 UNK        -0.4313 
     33 C         -72.3013   26.3937  -77.9651 C.2       8 UNK         0.5041 
     34 O         -72.7489   27.5430  -77.9668 O.2       8 UNK        -0.5577 
     35 CA        -73.2443   25.1823  -77.8534 C.3       7 UNK         0.0284 
     36 CB        -73.0592   24.4530  -76.5102 C.3       7 UNK        -0.1958 
     37 N         -74.6475   25.5790  -77.9955 N.am      7 UNK        -0.4454 
     38 C         -75.2775   25.7150  -79.1710 C.2       7 UNK         0.5089 
     39 O         -74.7355   25.4941  -80.2557 O.2       7 UNK        -0.5125 
     40 CA        -76.7642   26.1273  -79.1655 C.3       6 UNK         0.0408 
     41 CB        -77.6415   24.9551  -79.6357 C.3       6 UNK        -0.1791 
     42 N         -77.2562   26.5854  -77.8649 N.am      6 UNK        -0.4762 
     43 C         -77.0409   27.8035  -77.3468 C.2       6 UNK         0.5007 
     44 O         -76.4376   28.6989  -77.9388 O.2       6 UNK        -0.5032 
     45 CA        -77.5691   28.0501  -75.9150 C.3       5 UNK         0.0783 
     46 C46       -79.0241   28.5901  -75.9357 C.3       11 UNK        -0.0857 
     47 S47       -79.0743   30.4082  -76.0659 S.3       11 UNK        -0.2512 
     48 C48       -79.7771   30.8931  -74.4522 C.3       11 UNK         0.0225 
     49 N         -77.4386   26.8737  -75.0460 N.am      5 UNK        -0.4615 
     50 C         -76.2852   26.2521  -74.7611 C.2       4 UNK         0.5053 
     51 O         -75.2006   26.5942  -75.2230 O.2       4 UNK        -0.5105 
     52 CA        -76.3491   25.0237  -73.8436 C.3       4 UNK         0.0263 
     53 CB        -76.3586   25.4447  -72.3672 C.3       4 UNK        -0.1981 
     54 N         -77.5381   24.2252  -74.1377 N.am      4 UNK        -0.4224 
     55 C         -77.5613   23.2135  -75.0169 C.2       3 UNK         0.4895 
     56 O         -76.5666   22.7938  -75.6089 O.2       3 UNK        -0.5091 
     57 CA        -78.9257   22.5584  -75.2989 C.3       3 UNK         0.0250 
     58 CB        -79.1618   21.3756  -74.3459 C.3       3 UNK        -0.1996 
     59 N         -80.0557   23.4865  -75.2089 N.am      3 UNK        -0.4254 
     60 C         -80.2350   24.5498  -76.0046 C.2       2 UNK         0.5004 
     61 O         -79.4707   24.8657  -76.9159 O.2       2 UNK        -0.5226 
     62 CA        -81.4495   25.4413  -75.7018 C.3       2 UNK         0.0269 
     63 CB        -82.6908   24.9292  -76.4491 C.3       2 UNK        -0.1926 
     64 N         -81.7702   25.5975  -74.2765 N.am      2 UNK        -0.4687 
     65 C         -80.9331   26.0262  -73.3177 C.2       1 UNK         0.5165 
     66 O         -79.7265   26.1771  -73.5090 O.2       1 UNK        -0.5079 
     67 H67       -85.4248   25.3756  -71.6161 H         1 UNK         0.0900 
     68 H68       -85.9461   27.0513  -71.4327 H         1 UNK         0.0900 
     69 H69       -85.8912   26.3143  -73.0361 H         1 UNK         0.0900 
     70 H70       -83.2033   25.1492  -71.4444 H         1 UNK         0.2959 
     71 H71       -81.4566   27.4412  -71.8468 H         1 UNK         0.1079 
     72 H72       -81.3641   25.8295  -69.8311 H         1 UNK         0.0837 
     73 H73       -80.6176   24.6752  -70.8930 H         1 UNK         0.0837 
     74 H74       -80.5485   28.4655  -70.0595 H         1 UNK         0.0685 
     75 H75       -79.0815   28.5700  -69.1396 H         1 UNK         0.0685 
     76 H76       -80.6030   29.3445  -72.3808 H         1 UNK         0.1434 
     77 H77       -77.1528   31.3864  -73.8733 H         1 UNK         0.1329 
     78 H78       -76.8925   29.1244  -70.2384 H         1 UNK         0.1335 
     79 H79       -75.0478   30.5584  -70.8855 H         1 UNK         0.0680 
     80 H80       -75.3491   31.8101  -72.0615 H         1 UNK         0.0680 
     81 H81       -74.1218   27.5135  -73.0111 H         1 UNK         0.1032 
     82 H82       -74.8247   28.1313  -71.5441 H         1 UNK         0.1032 
     83 H83       -72.5708   29.0765  -70.9018 H         1 UNK         0.0461 
     84 H84       -70.4912   26.7447  -71.0631 H         1 UNK         0.3453 
     85 H85       -71.1850   25.6074  -69.9331 H         1 UNK         0.3453 
     86 H86       -70.9990   29.3049  -72.4128 H         1 UNK         0.2984 
     87 H87       -70.1413   29.2130  -74.5925 H         1 UNK         0.0554 
     88 H88       -68.5416   26.7513  -73.6510 H         1 UNK         0.0847 
     89 H89       -68.5802   28.3093  -72.8351 H         1 UNK         0.0847 
     90 H90       -67.8522   28.1763  -74.4256 H         1 UNK         0.0847 
     91 H91       -70.6910   26.6243  -75.7427 H         1 UNK         0.3141 
     92 H92       -70.2101   27.7995  -78.9733 H         1 UNK         0.0743 
     93 H93       -68.2980   25.6734  -77.8619 H         1 UNK         0.0784 
     94 H94       -68.7615   25.8661  -79.5541 H         1 UNK         0.0784 
     95 H95       -67.8203   27.1111  -78.7527 H         1 UNK         0.0784 
     96 H96       -70.7077   25.1404  -78.0419 H         1 UNK         0.3213 
     97 H97       -72.9934   24.4832  -78.6544 H         1 UNK         0.0855 
     98 H98       -73.1441   25.1330  -75.6629 H         1 UNK         0.0814 
     99 H99       -72.0770   23.9840  -76.4463 H         1 UNK         0.0814 
    100 H100      -73.8003   23.6639  -76.3793 H         1 UNK         0.0814 
    101 H101      -75.1111   25.8883  -77.1479 H         1 UNK         0.3105 
    102 H102      -76.8771   26.9412  -79.8846 H         1 UNK         0.0547 
    103 H103      -77.3392   24.6080  -80.6246 H         1 UNK         0.0837 
    104 H104      -77.5735   24.1050  -78.9554 H         1 UNK         0.0837 
    105 H105      -78.6901   25.2457  -79.7022 H         1 UNK         0.0837 
    106 H106      -77.8198   25.9243  -77.3365 H         1 UNK         0.3020 
    107 H107      -76.9195   28.8069  -75.4678 H         1 UNK         0.1245 
    108 H108      -79.5530   28.3045  -75.0271 H         1 UNK         0.0781 
    109 H109      -79.6058   28.1584  -76.7524 H         1 UNK         0.0781 
    110 H110      -80.8051   30.5310  -74.3973 H         1 UNK         0.0836 
    111 H111      -79.8344   31.9814  -74.4065 H         1 UNK         0.0836 
    112 H112      -78.2858   26.5639  -74.5759 H         1 UNK         0.3022 
    113 H113      -75.4540   24.4206  -74.0121 H         1 UNK         0.0747 
    114 H114      -76.6795   24.6326  -71.7147 H         1 UNK         0.0793 
    115 H115      -75.3605   25.7364  -72.0436 H         1 UNK         0.0793 
    116 H116      -77.0175   26.2961  -72.1968 H         1 UNK         0.0793 
    117 H117      -78.4109   24.5524  -73.7399 H         1 UNK         0.3047 
    118 H118      -78.8959   22.1745  -76.3210 H         1 UNK         0.0822 
    119 H119      -80.0808   20.8435  -74.5926 H         1 UNK         0.0807 
    120 H120      -79.2286   21.7003  -73.3067 H         1 UNK         0.0807 
    121 H121      -78.3455   20.6546  -74.4100 H         1 UNK         0.0807 
    122 H122      -80.7342   23.3170  -74.4808 H         1 UNK         0.2946 
    123 H123      -81.2135   26.4354  -76.0855 H         1 UNK         0.1144 
    124 H124      -82.4881   24.8216  -77.5159 H         1 UNK         0.0793 
    125 H125      -83.5279   25.6205  -76.3499 H         1 UNK         0.0793 
    126 H126      -83.0128   23.9552  -76.0785 H         1 UNK         0.0793 
    127 H127      -82.7420   25.4949  -74.0228 H         1 UNK         0.2896 
@<TRIPOS>BOND
     1    1    2 1    
     2    1   67 1    
     3    1   68 1    
     4    1   69 1    
     5    2    3 2    
     6    2    4 am   BACKBONE|DICT|INTERRES
     7    4    5 1    
     8    4   70 1    
     9    5    6 1    
    10    5   65 1    
    11    5   71 1    
    12    6    7 1    
    13    6   72 1    
    14    6   73 1    
    15    7    8 1    
    16    8    9 1    
    17    8   74 1    
    18    8   75 1    
    19    9   10 ar   
    20    9   14 ar   
    21   10   11 ar   
    22   10   76 1    
    23   11   12 ar   
    24   11   48 1    
    25   12   13 ar   
    26   12   77 1    
    27   13   14 ar   
    28   13   15 1    
    29   14   78 1    
    30   15   16 1    
    31   15   79 1    
    32   15   80 1    
    33   16   17 1    
    34   17   18 1    
    35   17   81 1    
    36   17   82 1    
    37   18   19 1    
    38   18   22 1    
    39   18   83 1    
    40   19   20 am   BACKBONE|DICT|INTERRES
    41   19   21 2    
    42   20   84 1    
    43   20   85 1    
    44   22   23 am   BACKBONE|DICT|INTERRES
    45   22   86 1    
    46   23   24 2    
    47   23   25 1    
    48   25   26 1    
    49   25   27 1    
    50   25   87 1    
    51   26   88 1    
    52   26   89 1    
    53   26   90 1    
    54   27   28 am   BACKBONE|DICT|INTERRES
    55   27   91 1    
    56   28   29 2    
    57   28   30 1    
    58   30   31 1    
    59   30   32 1    
    60   30   92 1    
    61   31   93 1    
    62   31   94 1    
    63   31   95 1    
    64   32   33 am   BACKBONE|DICT|INTERRES
    65   32   96 1    
    66   33   34 2    
    67   33   35 1    
    68   35   36 1    
    69   35   37 1    
    70   35   97 1    
    71   36   98 1    
    72   36   99 1    
    73   36  100 1    
    74   37   38 am   BACKBONE|DICT|INTERRES
    75   37  101 1    
    76   38   39 2    
    77   38   40 1    
    78   40   41 1    
    79   40   42 1    
    80   40  102 1    
    81   41  103 1    
    82   41  104 1    
    83   41  105 1    
    84   42   43 am   BACKBONE|DICT|INTERRES
    85   42  106 1    
    86   43   44 2    
    87   43   45 1    
    88   45   46 1    
    89   45   49 1    
    90   45  107 1    
    91   46   47 1    
    92   46  108 1    
    93   46  109 1    
    94   47   48 1    
    95   48  110 1    
    96   48  111 1    
    97   49   50 am   BACKBONE|DICT|INTERRES
    98   49  112 1    
    99   50   51 2    
   100   50   52 1    
   101   52   53 1    
   102   52   54 1    
   103   52  113 1    
   104   53  114 1    
   105   53  115 1    
   106   53  116 1    
   107   54   55 am   BACKBONE|DICT|INTERRES
   108   54  117 1    
   109   55   56 2    
   110   55   57 1    
   111   57   58 1    
   112   57   59 1    
   113   57  118 1    
   114   58  119 1    
   115   58  120 1    
   116   58  121 1    
   117   59   60 am   BACKBONE|DICT|INTERRES
   118   59  122 1    
   119   60   61 2    
   120   60   62 1    
   121   62   63 1    
   122   62   64 1    
   123   62  123 1    
   124   63  124 1    
   125   63  125 1    
   126   63  126 1    
   127   64   65 am   BACKBONE|DICT|INTERRES
   128   64  127 1    
   129   65   66 2    
@<TRIPOS>SUBSTRUCTURE
     1 UNK         1 GROUP             0       ****    0 ROOT    
