@<TRIPOS>MOLECULE
3R135
127   129    1
SMALL
USER_CHARGES


@<TRIPOS>ATOM
      1 CA        -86.0773   28.9868  -76.6989 C.3       0 UNK        -0.1998 
      2 C         -84.6424   28.5551  -76.4343 C.2       0 UNK         0.4909 
      3 O         -84.0385   27.8884  -77.2759 O.2       0 UNK        -0.5240 
      4 N         -84.0893   28.9365  -75.2757 N.am      1 UNK        -0.4739 
      5 CA        -82.7473   28.5517  -74.8259 C.3       1 UNK         0.0864 
      6 C6        -82.2411   29.5097  -73.7171 C.3       11 UNK        -0.0881 
      7 S7        -80.4195   29.5543  -73.6181 S.3       11 UNK        -0.2682 
      8 C8        -80.1440   29.0346  -71.8955 C.3       11 UNK         0.0289 
      9 C9        -78.7008   28.6214  -71.6286 C.ar      11 UNK        -0.0687 
     10 C10       -78.4302   27.3626  -71.0869 C.ar      11 UNK        -0.0823 
     11 C11       -77.1198   26.9674  -70.8069 C.ar      11 UNK        -0.0830 
     12 C12       -76.0653   27.8477  -71.0708 C.ar      11 UNK        -0.1021 
     13 C13       -76.3221   29.1233  -71.5863 C.ar      11 UNK        -0.0753 
     14 C14       -77.6398   29.5012  -71.8688 C.ar      11 UNK        -0.0933 
     15 C15       -75.1877   30.1180  -71.7864 C.3       11 UNK         0.0166 
     16 S16       -74.5684   30.1122  -73.4957 S.3       11 UNK        -0.2615 
     17 C17       -73.4920   31.5873  -73.4801 C.3       11 UNK        -0.0865 
     18 CA        -71.9751   31.2760  -73.5582 C.3       10 UNK         0.0862 
     19 C         -71.4246   30.6055  -72.2634 C.2       10 UNK         0.5551 
     20 N         -70.7345   29.4732  -72.3291 N.am      10 UNK        -0.7319 
     21 O         -71.6144   31.1383  -71.1725 O.2       10 UNK        -0.5018 
     22 N         -71.6215   30.5960  -74.8150 N.am      10 UNK        -0.4509 
     23 C         -70.4334   30.7048  -75.4227 C.2       10 UNK         0.4899 
     24 O         -69.5341   31.4490  -75.0264 O.2       10 UNK        -0.4839 
     25 CA        -70.2119   29.8397  -76.6825 C.3       9 UNK         0.0222 
     26 CB        -68.7247   29.7631  -77.0878 C.3       9 UNK        -0.1966 
     27 N         -70.7710   28.4825  -76.6048 N.am      9 UNK        -0.4218 
     28 C         -70.5824   27.5656  -75.6448 C.2       9 UNK         0.5020 
     29 O         -69.9738   27.7901  -74.5968 O.2       9 UNK        -0.5274 
     30 CA        -71.1622   26.1595  -75.9068 C.3       8 UNK         0.0270 
     31 CB        -71.1030   25.2562  -74.6601 C.3       8 UNK        -0.1976 
     32 N         -72.5352   26.1775  -76.4286 N.am      8 UNK        -0.4313 
     33 C         -72.8700   26.4181  -77.7065 C.2       8 UNK         0.5041 
     34 O         -72.0465   26.7551  -78.5585 O.2       8 UNK        -0.5577 
     35 CA        -74.3452   26.2709  -78.1260 C.3       7 UNK         0.0284 
     36 CB        -74.5486   24.9662  -78.9126 C.3       7 UNK        -0.1958 
     37 N         -75.2791   26.2992  -77.0016 N.am      7 UNK        -0.4454 
     38 C         -75.6036   27.4009  -76.3118 C.2       7 UNK         0.5089 
     39 O         -75.2215   28.5302  -76.6178 O.2       7 UNK        -0.5125 
     40 CA        -76.4838   27.2068  -75.0629 C.3       6 UNK         0.0408 
     41 CB        -77.9360   27.5964  -75.3619 C.3       6 UNK        -0.1791 
     42 N         -76.4448   25.8506  -74.5028 N.am      6 UNK        -0.4762 
     43 C         -75.3489   25.2770  -73.9830 C.2       6 UNK         0.5007 
     44 O         -74.2481   25.8270  -73.9752 O.2       6 UNK        -0.5032 
     45 CA        -75.4534   23.8390  -73.4487 C.3       5 UNK         0.0783 
     46 C46       -75.5888   23.7810  -71.9075 C.3       11 UNK        -0.0857 
     47 S47       -77.2412   24.2241  -71.2660 S.3       11 UNK        -0.2512 
     48 C48       -76.8711   25.6168  -70.1505 C.3       11 UNK         0.0225 
     49 N         -76.4803   23.0610  -74.1498 N.am      5 UNK        -0.4615 
     50 C         -76.2819   21.8409  -74.6662 C.2       4 UNK         0.5053 
     51 O         -75.2212   21.2226  -74.5681 O.2       4 UNK        -0.5105 
     52 CA        -77.4487   21.1841  -75.4313 C.3       4 UNK         0.0263 
     53 CB        -78.2135   20.2209  -74.5091 C.3       4 UNK        -0.1981 
     54 N         -78.3961   22.1343  -76.0189 N.am      4 UNK        -0.4224 
     55 C         -78.0985   23.0622  -76.9393 C.2       3 UNK         0.4895 
     56 O         -76.9914   23.1746  -77.4649 O.2       3 UNK        -0.5091 
     57 CA        -79.2057   24.0658  -77.3161 C.3       3 UNK         0.0250 
     58 CB        -79.8697   23.6492  -78.6384 C.3       3 UNK        -0.1996 
     59 N         -80.2515   24.2986  -76.3057 N.am      3 UNK        -0.4254 
     60 C         -80.0593   24.6178  -75.0175 C.2       2 UNK         0.5004 
     61 O         -78.9521   24.6566  -74.4793 O.2       2 UNK        -0.5226 
     62 CA        -81.3023   25.0268  -74.2237 C.3       2 UNK         0.0269 
     63 CB        -81.1321   24.7986  -72.7094 C.3       2 UNK        -0.1926 
     64 N         -81.5423   26.4396  -74.5054 N.am      2 UNK        -0.4687 
     65 C         -82.7159   27.0687  -74.3876 C.2       1 UNK         0.5165 
     66 O         -83.7373   26.5299  -73.9514 O.2       1 UNK        -0.5079 
     67 H67       -86.4830   29.5788  -75.8787 H         1 UNK         0.0900 
     68 H68       -86.7131   28.1120  -76.8321 H         1 UNK         0.0900 
     69 H69       -86.1275   29.5867  -77.6071 H         1 UNK         0.0900 
     70 H70       -84.6453   29.4528  -74.6088 H         1 UNK         0.2959 
     71 H71       -82.0875   28.6538  -75.6912 H         1 UNK         0.1079 
     72 H72       -82.6828   29.2670  -72.7485 H         1 UNK         0.0837 
     73 H73       -82.5577   30.5311  -73.9355 H         1 UNK         0.0837 
     74 H74       -80.8186   28.2085  -71.6670 H         1 UNK         0.0685 
     75 H75       -80.4137   29.8521  -71.2266 H         1 UNK         0.0685 
     76 H76       -79.2426   26.6887  -70.8576 H         1 UNK         0.1434 
     77 H77       -75.0487   27.5552  -70.8459 H         1 UNK         0.1329 
     78 H78       -77.8421   30.4864  -72.2661 H         1 UNK         0.1335 
     79 H79       -74.3637   29.8973  -71.1058 H         1 UNK         0.0680 
     80 H80       -75.5388   31.1187  -71.5296 H         1 UNK         0.0680 
     81 H81       -73.7743   32.2075  -74.3322 H         1 UNK         0.1032 
     82 H82       -73.7073   32.1999  -72.6027 H         1 UNK         0.1032 
     83 H83       -71.4844   32.2511  -73.5808 H         1 UNK         0.0461 
     84 H84       -70.3832   29.0646  -71.4786 H         1 UNK         0.3453 
     85 H85       -70.5458   29.0183  -73.2175 H         1 UNK         0.3453 
     86 H86       -72.3057   29.9465  -75.1758 H         1 UNK         0.2984 
     87 H87       -70.7479   30.3417  -77.4890 H         1 UNK         0.0554 
     88 H88       -68.5912   29.1872  -78.0035 H         1 UNK         0.0847 
     89 H89       -68.1202   29.2980  -76.3081 H         1 UNK         0.0847 
     90 H90       -68.3133   30.7565  -77.2714 H         1 UNK         0.0847 
     91 H91       -71.2782   28.1625  -77.4263 H         1 UNK         0.3141 
     92 H92       -70.5212   25.7005  -76.6626 H         1 UNK         0.0743 
     93 H93       -70.0718   25.1014  -74.3400 H         1 UNK         0.0784 
     94 H94       -71.6386   25.6955  -73.8180 H         1 UNK         0.0784 
     95 H95       -71.5306   24.2729  -74.8565 H         1 UNK         0.0784 
     96 H96       -73.2687   25.9985  -75.7494 H         1 UNK         0.3213 
     97 H97       -74.5794   27.1072  -78.7885 H         1 UNK         0.0855 
     98 H98       -74.3447   24.0878  -78.2987 H         1 UNK         0.0814 
     99 H99       -73.8845   24.9221  -79.7770 H         1 UNK         0.0814 
    100 H100      -75.5696   24.8828  -79.2859 H         1 UNK         0.0814 
    101 H101      -75.6564   25.4131  -76.6944 H         1 UNK         0.3105 
    102 H102      -76.1133   27.8775  -74.2888 H         1 UNK         0.0547 
    103 H103      -78.5581   27.4659  -74.4773 H         1 UNK         0.0837 
    104 H104      -78.0044   28.6445  -75.6560 H         1 UNK         0.0837 
    105 H105      -78.3597   26.9996  -76.1686 H         1 UNK         0.0837 
    106 H106      -77.3394   25.3660  -74.4458 H         1 UNK         0.3020 
    107 H107      -74.4774   23.4073  -73.6839 H         1 UNK         0.1245 
    108 H108      -74.8201   24.3979  -71.4389 H         1 UNK         0.0781 
    109 H109      -75.3810   22.7632  -71.5742 H         1 UNK         0.0781 
    110 H110      -75.8526   25.5452  -69.7669 H         1 UNK         0.0836 
    111 H111      -77.5188   25.5332  -69.2766 H         1 UNK         0.0836 
    112 H112      -77.3917   23.4983  -74.2472 H         1 UNK         0.3022 
    113 H113      -77.0148   20.6058  -76.2496 H         1 UNK         0.0747 
    114 H114      -78.9866   19.6780  -75.0532 H         1 UNK         0.0793 
    115 H115      -77.5416   19.4777  -74.0773 H         1 UNK         0.0793 
    116 H116      -78.6898   20.7488  -73.6817 H         1 UNK         0.0793 
    117 H117      -79.3316   22.1318  -75.6407 H         1 UNK         0.3047 
    118 H118      -78.7080   25.0230  -77.4803 H         1 UNK         0.0822 
    119 H119      -79.1243   23.4949  -79.4202 H         1 UNK         0.0807 
    120 H120      -80.5563   24.4157  -78.9984 H         1 UNK         0.0807 
    121 H121      -80.4285   22.7185  -78.5328 H         1 UNK         0.0807 
    122 H122      -81.1992   24.3078  -76.6556 H         1 UNK         0.2946 
    123 H123      -82.1493   24.4319  -74.5736 H         1 UNK         0.1144 
    124 H124      -80.9302   23.7486  -72.4944 H         1 UNK         0.0793 
    125 H125      -82.0290   25.0780  -72.1570 H         1 UNK         0.0793 
    126 H126      -80.2991   25.3752  -72.3117 H         1 UNK         0.0793 
    127 H127      -80.7437   26.9551  -74.8502 H         1 UNK         0.2896 
@<TRIPOS>BOND
     1    1    2 1    
     2    1   67 1    
     3    1   68 1    
     4    1   69 1    
     5    2    3 2    
     6    2    4 am   BACKBONE|DICT|INTERRES
     7    4    5 1    
     8    4   70 1    
     9    5    6 1    
    10    5   65 1    
    11    5   71 1    
    12    6    7 1    
    13    6   72 1    
    14    6   73 1    
    15    7    8 1    
    16    8    9 1    
    17    8   74 1    
    18    8   75 1    
    19    9   10 ar   
    20    9   14 ar   
    21   10   11 ar   
    22   10   76 1    
    23   11   12 ar   
    24   11   48 1    
    25   12   13 ar   
    26   12   77 1    
    27   13   14 ar   
    28   13   15 1    
    29   14   78 1    
    30   15   16 1    
    31   15   79 1    
    32   15   80 1    
    33   16   17 1    
    34   17   18 1    
    35   17   81 1    
    36   17   82 1    
    37   18   19 1    
    38   18   22 1    
    39   18   83 1    
    40   19   20 am   BACKBONE|DICT|INTERRES
    41   19   21 2    
    42   20   84 1    
    43   20   85 1    
    44   22   23 am   BACKBONE|DICT|INTERRES
    45   22   86 1    
    46   23   24 2    
    47   23   25 1    
    48   25   26 1    
    49   25   27 1    
    50   25   87 1    
    51   26   88 1    
    52   26   89 1    
    53   26   90 1    
    54   27   28 am   BACKBONE|DICT|INTERRES
    55   27   91 1    
    56   28   29 2    
    57   28   30 1    
    58   30   31 1    
    59   30   32 1    
    60   30   92 1    
    61   31   93 1    
    62   31   94 1    
    63   31   95 1    
    64   32   33 am   BACKBONE|DICT|INTERRES
    65   32   96 1    
    66   33   34 2    
    67   33   35 1    
    68   35   36 1    
    69   35   37 1    
    70   35   97 1    
    71   36   98 1    
    72   36   99 1    
    73   36  100 1    
    74   37   38 am   BACKBONE|DICT|INTERRES
    75   37  101 1    
    76   38   39 2    
    77   38   40 1    
    78   40   41 1    
    79   40   42 1    
    80   40  102 1    
    81   41  103 1    
    82   41  104 1    
    83   41  105 1    
    84   42   43 am   BACKBONE|DICT|INTERRES
    85   42  106 1    
    86   43   44 2    
    87   43   45 1    
    88   45   46 1    
    89   45   49 1    
    90   45  107 1    
    91   46   47 1    
    92   46  108 1    
    93   46  109 1    
    94   47   48 1    
    95   48  110 1    
    96   48  111 1    
    97   49   50 am   BACKBONE|DICT|INTERRES
    98   49  112 1    
    99   50   51 2    
   100   50   52 1    
   101   52   53 1    
   102   52   54 1    
   103   52  113 1    
   104   53  114 1    
   105   53  115 1    
   106   53  116 1    
   107   54   55 am   BACKBONE|DICT|INTERRES
   108   54  117 1    
   109   55   56 2    
   110   55   57 1    
   111   57   58 1    
   112   57   59 1    
   113   57  118 1    
   114   58  119 1    
   115   58  120 1    
   116   58  121 1    
   117   59   60 am   BACKBONE|DICT|INTERRES
   118   59  122 1    
   119   60   61 2    
   120   60   62 1    
   121   62   63 1    
   122   62   64 1    
   123   62  123 1    
   124   63  124 1    
   125   63  125 1    
   126   63  126 1    
   127   64   65 am   BACKBONE|DICT|INTERRES
   128   64  127 1    
   129   65   66 2    
@<TRIPOS>SUBSTRUCTURE
     1 UNK         1 GROUP             0       ****    0 ROOT    
