@<TRIPOS>MOLECULE
3R135
127   129    1
SMALL
USER_CHARGES


@<TRIPOS>ATOM
      1 CA        -81.9298   23.5024  -69.5770 C.3       0 UNK        -0.1998 
      2 C         -81.8164   24.6866  -70.5245 C.2       0 UNK         0.4909 
      3 O         -82.8315   25.1673  -71.0310 O.2       0 UNK        -0.5240 
      4 N         -80.5895   25.1600  -70.7763 N.am      1 UNK        -0.4739 
      5 CA        -80.2739   26.2883  -71.6608 C.3       1 UNK         0.0864 
      6 C6        -78.9294   26.9553  -71.2714 C.3       11 UNK        -0.0881 
      7 S7        -79.0329   27.8601  -69.6882 S.3       11 UNK        -0.2682 
      8 C8        -79.9388   29.3789  -70.1513 C.3       11 UNK         0.0289 
      9 C9        -79.2275   30.1695  -71.2400 C.ar      11 UNK        -0.0687 
     10 C10       -79.6176   30.0360  -72.5764 C.ar      11 UNK        -0.0823 
     11 C11       -78.9132   30.6925  -73.5886 C.ar      11 UNK        -0.0830 
     12 C12       -77.8549   31.5419  -73.2507 C.ar      11 UNK        -0.1021 
     13 C13       -77.4620   31.6916  -71.9171 C.ar      11 UNK        -0.0753 
     14 C14       -78.1545   31.0041  -70.9156 C.ar      11 UNK        -0.0933 
     15 C15       -76.2621   32.5606  -71.5591 C.3       11 UNK         0.0166 
     16 S16       -74.7174   31.9827  -72.3409 S.3       11 UNK        -0.2615 
     17 C17       -74.7134   30.2125  -71.8897 C.3       11 UNK        -0.0865 
     18 CA        -73.3272   29.5320  -72.0348 C.3       10 UNK         0.0862 
     19 C         -73.4234   28.0322  -71.6234 C.2       10 UNK         0.5551 
     20 N         -73.2910   27.0766  -72.5366 N.am      10 UNK        -0.7319 
     21 O         -73.6227   27.7347  -70.4486 O.2       10 UNK        -0.5018 
     22 N         -72.7356   29.7593  -73.3632 N.am      10 UNK        -0.4509 
     23 C         -71.4472   29.5675  -73.6668 C.2       10 UNK         0.4899 
     24 O         -70.5769   29.2623  -72.8490 O.2       10 UNK        -0.4839 
     25 CA        -71.0762   29.7073  -75.1538 C.3       9 UNK         0.0222 
     26 CB        -69.8873   30.6646  -75.3451 C.3       9 UNK        -0.1966 
     27 N         -70.7607   28.4075  -75.7548 N.am      9 UNK        -0.4218 
     28 C         -71.6096   27.3736  -75.8283 C.2       9 UNK         0.5020 
     29 O         -72.7614   27.4023  -75.3946 O.2       9 UNK        -0.5274 
     30 CA        -71.0776   26.0831  -76.4549 C.3       8 UNK         0.0270 
     31 CB        -70.3932   25.2031  -75.3941 C.3       8 UNK        -0.1976 
     32 N         -72.1909   25.3522  -77.0575 N.am      8 UNK        -0.4313 
     33 C         -72.0908   24.5565  -78.1285 C.2       8 UNK         0.5041 
     34 O         -71.0278   24.3156  -78.7037 O.2       8 UNK        -0.5577 
     35 CA        -73.3857   23.9217  -78.6635 C.3       7 UNK         0.0284 
     36 CB        -73.7263   22.6426  -77.8814 C.3       7 UNK        -0.1958 
     37 N         -74.5345   24.8287  -78.6415 N.am      7 UNK        -0.4454 
     38 C         -74.6669   25.9265  -79.4007 C.2       7 UNK         0.5089 
     39 O         -73.8297   26.2990  -80.2231 O.2       7 UNK        -0.5125 
     40 CA        -75.9506   26.7514  -79.2085 C.3       6 UNK         0.0408 
     41 CB        -77.1083   26.1736  -80.0385 C.3       6 UNK        -0.1791 
     42 N         -76.3296   26.8129  -77.7962 N.am      6 UNK        -0.4762 
     43 C         -75.8223   27.6966  -76.9238 C.2       6 UNK         0.5007 
     44 O         -75.1042   28.6402  -77.2581 O.2       6 UNK        -0.5032 
     45 CA        -76.1586   27.5024  -75.4287 C.3       5 UNK         0.0783 
     46 C46       -77.0509   28.6357  -74.8729 C.3       11 UNK        -0.0857 
     47 S47       -78.7427   28.7337  -75.5585 S.3       11 UNK        -0.2512 
     48 C48       -79.2406   30.4190  -75.0512 C.3       11 UNK         0.0225 
     49 N         -76.6573   26.1606  -75.0974 N.am      5 UNK        -0.4615 
     50 C         -75.8849   25.0629  -75.0926 C.2       4 UNK         0.5053 
     51 O         -74.6875   25.0656  -75.3746 O.2       4 UNK        -0.5105 
     52 CA        -76.5675   23.7205  -74.7879 C.3       4 UNK         0.0263 
     53 CB        -76.8027   23.5474  -73.2789 C.3       4 UNK        -0.1981 
     54 N         -77.8229   23.5366  -75.5186 N.am      4 UNK        -0.4224 
     55 C         -77.9488   23.5336  -76.8523 C.2       3 UNK         0.4895 
     56 O         -76.9996   23.6916  -77.6191 O.2       3 UNK        -0.5091 
     57 CA        -79.3606   23.3708  -77.4465 C.3       3 UNK         0.0250 
     58 CB        -79.7348   21.8838  -77.6001 C.3       3 UNK        -0.1996 
     59 N         -80.4008   24.1358  -76.7420 N.am      3 UNK        -0.4254 
     60 C         -80.8730   23.9544  -75.5011 C.2       2 UNK         0.5004 
     61 O         -80.5579   23.0145  -74.7667 O.2       2 UNK        -0.5226 
     62 CA        -81.8240   25.0416  -74.9755 C.3       2 UNK         0.0269 
     63 CB        -83.2815   24.5579  -75.0364 C.3       2 UNK        -0.1926 
     64 N         -81.5108   25.4509  -73.6032 N.am      2 UNK        -0.4687 
     65 C         -80.3220   25.8728  -73.1475 C.2       1 UNK         0.5165 
     66 O         -79.3063   25.9410  -73.8431 O.2       1 UNK        -0.5079 
     67 H67       -82.5540   23.7642  -68.7231 H         1 UNK         0.0900 
     68 H68       -80.9568   23.1859  -69.2014 H         1 UNK         0.0900 
     69 H69       -82.3880   22.6561  -70.0881 H         1 UNK         0.0900 
     70 H70       -79.7930   24.7172  -70.3410 H         1 UNK         0.2959 
     71 H71       -81.0587   27.0385  -71.5487 H         1 UNK         0.1079 
     72 H72       -78.1439   26.2024  -71.1877 H         1 UNK         0.0837 
     73 H73       -78.5793   27.6416  -72.0415 H         1 UNK         0.0837 
     74 H74       -80.0496   30.0031  -69.2634 H         1 UNK         0.0685 
     75 H75       -80.9517   29.1224  -70.4635 H         1 UNK         0.0685 
     76 H76       -80.4295   29.3719  -72.8388 H         1 UNK         0.1434 
     77 H77       -77.2995   32.0487  -74.0282 H         1 UNK         0.1329 
     78 H78       -77.8452   31.0964  -69.8834 H         1 UNK         0.1335 
     79 H79       -76.1153   32.5930  -70.4783 H         1 UNK         0.0680 
     80 H80       -76.4566   33.5866  -71.8742 H         1 UNK         0.0680 
     81 H81       -75.0687   30.1202  -70.8611 H         1 UNK         0.1032 
     82 H82       -75.4519   29.7027  -72.5098 H         1 UNK         0.1032 
     83 H83       -72.6614   30.0020  -71.3083 H         1 UNK         0.0461 
     84 H84       -73.1197   27.3006  -73.5129 H         1 UNK         0.3453 
     85 H85       -73.3545   26.1136  -72.2511 H         1 UNK         0.3453 
     86 H86       -73.3821   29.9880  -74.1033 H         1 UNK         0.2984 
     87 H87       -71.9306   30.1225  -75.6930 H         1 UNK         0.0554 
     88 H88       -69.6712   30.8253  -76.4015 H         1 UNK         0.0847 
     89 H89       -68.9810   30.2868  -74.8699 H         1 UNK         0.0847 
     90 H90       -70.1003   31.6409  -74.9075 H         1 UNK         0.0847 
     91 H91       -69.8186   28.2866  -76.0978 H         1 UNK         0.3141 
     92 H92       -70.3555   26.3520  -77.2289 H         1 UNK         0.0743 
     93 H93       -71.0908   24.9110  -74.6076 H         1 UNK         0.0784 
     94 H94       -69.9863   24.2932  -75.8355 H         1 UNK         0.0784 
     95 H95       -69.5657   25.7311  -74.9184 H         1 UNK         0.0784 
     96 H96       -73.0957   25.5033  -76.6137 H         1 UNK         0.3213 
     97 H97       -73.2082   23.6428  -79.7044 H         1 UNK         0.0855 
     98 H98       -73.9302   22.8538  -76.8313 H         1 UNK         0.0814 
     99 H99       -72.8995   21.9320  -77.9168 H         1 UNK         0.0814 
    100 H100      -74.6017   22.1438  -78.2978 H         1 UNK         0.0814 
    101 H101      -75.3092   24.5610  -78.0413 H         1 UNK         0.3105 
    102 H102      -75.7586   27.7626  -79.5736 H         1 UNK         0.0547 
    103 H103      -76.8621   26.1819  -81.1010 H         1 UNK         0.0837 
    104 H104      -77.3344   25.1422  -79.7694 H         1 UNK         0.0837 
    105 H105      -78.0180   26.7609  -79.9132 H         1 UNK         0.0837 
    106 H106      -76.8946   26.0559  -77.4369 H         1 UNK         0.3020 
    107 H107      -75.2048   27.6029  -74.9091 H         1 UNK         0.1245 
    108 H108      -76.5576   29.5976  -75.0253 H         1 UNK         0.0781 
    109 H109      -77.1378   28.5172  -73.7925 H         1 UNK         0.0781 
    110 H110      -80.3117   30.5418  -75.2172 H         1 UNK         0.0836 
    111 H111      -78.7446   31.1437  -75.6987 H         1 UNK         0.0836 
    112 H112      -77.6356   26.0879  -74.8260 H         1 UNK         0.3022 
    113 H113      -75.8890   22.9292  -75.1133 H         1 UNK         0.0747 
    114 H114      -77.2104   22.5623  -73.0520 H         1 UNK         0.0793 
    115 H115      -75.8675   23.6466  -72.7262 H         1 UNK         0.0793 
    116 H116      -77.4926   24.2932  -72.8852 H         1 UNK         0.0793 
    117 H117      -78.6687   23.4076  -74.9703 H         1 UNK         0.3047 
    118 H118      -79.3199   23.7964  -78.4506 H         1 UNK         0.0822 
    119 H119      -80.7125   21.7669  -78.0674 H         1 UNK         0.0807 
    120 H120      -79.7557   21.3626  -76.6427 H         1 UNK         0.0807 
    121 H121      -79.0101   21.3668  -78.2306 H         1 UNK         0.0807 
    122 H122      -80.7238   24.9523  -77.2430 H         1 UNK         0.2946 
    123 H123      -81.7234   25.9299  -75.6029 H         1 UNK         0.1144 
    124 H124      -83.9740   25.3411  -74.7272 H         1 UNK         0.0793 
    125 H125      -83.4439   23.6927  -74.3920 H         1 UNK         0.0793 
    126 H126      -83.5558   24.2657  -76.0510 H         1 UNK         0.0793 
    127 H127      -82.2584   25.3713  -72.9208 H         1 UNK         0.2896 
@<TRIPOS>BOND
     1    1    2 1    
     2    1   67 1    
     3    1   68 1    
     4    1   69 1    
     5    2    3 2    
     6    2    4 am   BACKBONE|DICT|INTERRES
     7    4    5 1    
     8    4   70 1    
     9    5    6 1    
    10    5   65 1    
    11    5   71 1    
    12    6    7 1    
    13    6   72 1    
    14    6   73 1    
    15    7    8 1    
    16    8    9 1    
    17    8   74 1    
    18    8   75 1    
    19    9   10 ar   
    20    9   14 ar   
    21   10   11 ar   
    22   10   76 1    
    23   11   12 ar   
    24   11   48 1    
    25   12   13 ar   
    26   12   77 1    
    27   13   14 ar   
    28   13   15 1    
    29   14   78 1    
    30   15   16 1    
    31   15   79 1    
    32   15   80 1    
    33   16   17 1    
    34   17   18 1    
    35   17   81 1    
    36   17   82 1    
    37   18   19 1    
    38   18   22 1    
    39   18   83 1    
    40   19   20 am   BACKBONE|DICT|INTERRES
    41   19   21 2    
    42   20   84 1    
    43   20   85 1    
    44   22   23 am   BACKBONE|DICT|INTERRES
    45   22   86 1    
    46   23   24 2    
    47   23   25 1    
    48   25   26 1    
    49   25   27 1    
    50   25   87 1    
    51   26   88 1    
    52   26   89 1    
    53   26   90 1    
    54   27   28 am   BACKBONE|DICT|INTERRES
    55   27   91 1    
    56   28   29 2    
    57   28   30 1    
    58   30   31 1    
    59   30   32 1    
    60   30   92 1    
    61   31   93 1    
    62   31   94 1    
    63   31   95 1    
    64   32   33 am   BACKBONE|DICT|INTERRES
    65   32   96 1    
    66   33   34 2    
    67   33   35 1    
    68   35   36 1    
    69   35   37 1    
    70   35   97 1    
    71   36   98 1    
    72   36   99 1    
    73   36  100 1    
    74   37   38 am   BACKBONE|DICT|INTERRES
    75   37  101 1    
    76   38   39 2    
    77   38   40 1    
    78   40   41 1    
    79   40   42 1    
    80   40  102 1    
    81   41  103 1    
    82   41  104 1    
    83   41  105 1    
    84   42   43 am   BACKBONE|DICT|INTERRES
    85   42  106 1    
    86   43   44 2    
    87   43   45 1    
    88   45   46 1    
    89   45   49 1    
    90   45  107 1    
    91   46   47 1    
    92   46  108 1    
    93   46  109 1    
    94   47   48 1    
    95   48  110 1    
    96   48  111 1    
    97   49   50 am   BACKBONE|DICT|INTERRES
    98   49  112 1    
    99   50   51 2    
   100   50   52 1    
   101   52   53 1    
   102   52   54 1    
   103   52  113 1    
   104   53  114 1    
   105   53  115 1    
   106   53  116 1    
   107   54   55 am   BACKBONE|DICT|INTERRES
   108   54  117 1    
   109   55   56 2    
   110   55   57 1    
   111   57   58 1    
   112   57   59 1    
   113   57  118 1    
   114   58  119 1    
   115   58  120 1    
   116   58  121 1    
   117   59   60 am   BACKBONE|DICT|INTERRES
   118   59  122 1    
   119   60   61 2    
   120   60   62 1    
   121   62   63 1    
   122   62   64 1    
   123   62  123 1    
   124   63  124 1    
   125   63  125 1    
   126   63  126 1    
   127   64   65 am   BACKBONE|DICT|INTERRES
   128   64  127 1    
   129   65   66 2    
@<TRIPOS>SUBSTRUCTURE
     1 UNK         1 GROUP             0       ****    0 ROOT    
