@<TRIPOS>MOLECULE
3R135
127   129    1
SMALL
USER_CHARGES


@<TRIPOS>ATOM
      1 CA        -84.5170   28.8401  -75.5188 C.3       0 UNK        -0.1998 
      2 C         -83.0859   29.1034  -75.0747 C.2       0 UNK         0.4909 
      3 O         -82.5271   30.1521  -75.3992 O.2       0 UNK        -0.5240 
      4 N         -82.4935   28.1651  -74.3261 N.am      1 UNK        -0.4739 
      5 CA        -81.1053   28.2246  -73.8577 C.3       1 UNK         0.0864 
      6 C6        -80.8315   27.1888  -72.7455 C.3       11 UNK        -0.0881 
      7 S7        -81.7889   27.5029  -71.2207 S.3       11 UNK        -0.2682 
      8 C8        -80.7787   28.7504  -70.3395 C.3       11 UNK         0.0289 
      9 C9        -79.2993   28.3898  -70.2542 C.ar      11 UNK        -0.0687 
     10 C10       -78.9010   27.1281  -69.8029 C.ar      11 UNK        -0.0823 
     11 C11       -77.5553   26.7476  -69.8430 C.ar      11 UNK        -0.0830 
     12 C12       -76.5953   27.6781  -70.2533 C.ar      11 UNK        -0.1021 
     13 C13       -76.9751   28.9562  -70.6735 C.ar      11 UNK        -0.0753 
     14 C14       -78.3292   29.3039  -70.6769 C.ar      11 UNK        -0.0933 
     15 C15       -75.9309   29.9557  -71.1500 C.3       11 UNK         0.0166 
     16 S16       -75.7943   29.9331  -72.9630 S.3       11 UNK        -0.2615 
     17 C17       -74.7333   31.3900  -73.2778 C.3       11 UNK        -0.0865 
     18 CA        -73.5627   31.1230  -74.2641 C.3       10 UNK         0.0862 
     19 C         -72.3905   30.3406  -73.6003 C.2       10 UNK         0.5551 
     20 N         -72.0037   29.1687  -74.0889 N.am      10 UNK        -0.7319 
     21 O         -71.8069   30.8224  -72.6323 O.2       10 UNK        -0.5018 
     22 N         -74.0487   30.5603  -75.5325 N.am      10 UNK        -0.4509 
     23 C         -73.4038   30.6065  -76.7033 C.2       10 UNK         0.4899 
     24 O         -72.3523   31.2188  -76.8972 O.2       10 UNK        -0.4839 
     25 CA        -74.0430   29.8050  -77.8522 C.3       9 UNK         0.0222 
     26 CB        -74.2801   30.6891  -79.0876 C.3       9 UNK        -0.1966 
     27 N         -73.2421   28.6361  -78.2295 N.am      9 UNK        -0.4218 
     28 C         -72.9259   27.6323  -77.4016 C.2       9 UNK         0.5020 
     29 O         -73.2571   27.5973  -76.2140 O.2       9 UNK        -0.5274 
     30 CA        -72.1109   26.4733  -77.9884 C.3       8 UNK         0.0270 
     31 CB        -70.6142   26.8210  -78.0318 C.3       8 UNK        -0.1976 
     32 N         -72.3113   25.3191  -77.1197 N.am      8 UNK        -0.4313 
     33 C         -72.6278   24.0769  -77.4895 C.2       8 UNK         0.5041 
     34 O         -72.6238   23.6946  -78.6603 O.2       8 UNK        -0.5577 
     35 CA        -73.0628   23.0950  -76.3815 C.3       7 UNK         0.0284 
     36 CB        -71.8856   22.2073  -75.9308 C.3       7 UNK        -0.1958 
     37 N         -73.7536   23.7162  -75.2339 N.am      7 UNK        -0.4454 
     38 C         -73.2477   24.5190  -74.2851 C.2       7 UNK         0.5089 
     39 O         -72.0659   24.8619  -74.2535 O.2       7 UNK        -0.5125 
     40 CA        -74.2026   25.0702  -73.2105 C.3       6 UNK         0.0408 
     41 CB        -74.1343   26.6025  -73.1456 C.3       6 UNK        -0.1791 
     42 N         -75.6043   24.6885  -73.3899 N.am      6 UNK        -0.4762 
     43 C         -76.1707   23.6103  -72.8312 C.2       6 UNK         0.5007 
     44 O         -75.5328   22.7231  -72.2634 O.2       6 UNK        -0.5032 
     45 CA        -77.7034   23.5111  -72.9132 C.3       5 UNK         0.0783 
     46 C46       -78.3887   24.4949  -71.9372 C.3       11 UNK        -0.0857 
     47 S47       -78.2388   24.0294  -70.1751 S.3       11 UNK        -0.2512 
     48 C48       -77.1292   25.3213  -69.4997 C.3       11 UNK         0.0225 
     49 N         -78.1443   23.7617  -74.2853 N.am      5 UNK        -0.4615 
     50 C         -78.7523   22.8653  -75.0725 C.2       4 UNK         0.5053 
     51 O         -79.0471   21.7251  -74.7134 O.2       4 UNK        -0.5105 
     52 CA        -79.0941   23.3048  -76.5102 C.3       4 UNK         0.0263 
     53 CB        -80.5708   23.7209  -76.6040 C.3       4 UNK        -0.1981 
     54 N         -78.2522   24.3984  -77.0040 N.am      4 UNK        -0.4224 
     55 C         -76.9303   24.3047  -77.2101 C.2       3 UNK         0.4895 
     56 O         -76.2984   23.2564  -77.0881 O.2       3 UNK        -0.5091 
     57 CA        -76.1651   25.5916  -77.5682 C.3       3 UNK         0.0250 
     58 CB        -75.8106   25.6085  -79.0635 C.3       3 UNK        -0.1996 
     59 N         -76.8458   26.8433  -77.2247 N.am      3 UNK        -0.4254 
     60 C         -77.2290   27.2231  -75.9978 C.2       2 UNK         0.5004 
     61 O         -77.1209   26.5073  -74.9967 O.2       2 UNK        -0.5226 
     62 CA        -77.8324   28.6365  -75.8677 C.3       2 UNK         0.0269 
     63 CB        -78.2399   29.2878  -77.2117 C.3       2 UNK        -0.1926 
     64 N         -78.9472   28.6785  -74.9163 N.am      2 UNK        -0.4687 
     65 C         -80.1117   28.0219  -75.0197 C.2       1 UNK         0.5165 
     66 O         -80.3991   27.2653  -75.9518 O.2       1 UNK        -0.5079 
     67 H67       -85.1753   29.6261  -75.1498 H         1 UNK         0.0900 
     68 H68       -84.8894   27.8848  -75.1491 H         1 UNK         0.0900 
     69 H69       -84.5756   28.8286  -76.6068 H         1 UNK         0.0900 
     70 H70       -82.9956   27.3201  -74.0954 H         1 UNK         0.2959 
     71 H71       -80.9373   29.2233  -73.4478 H         1 UNK         0.1079 
     72 H72       -81.0820   26.1862  -73.0975 H         1 UNK         0.0837 
     73 H73       -79.7688   27.1519  -72.5057 H         1 UNK         0.0837 
     74 H74       -80.9112   29.7117  -70.8381 H         1 UNK         0.0685 
     75 H75       -81.1715   28.8718  -69.3293 H         1 UNK         0.0685 
     76 H76       -79.6515   26.4170  -69.4863 H         1 UNK         0.1434 
     77 H77       -75.5507   27.4011  -70.2659 H         1 UNK         0.1329 
     78 H78       -78.6253   30.2832  -71.0277 H         1 UNK         0.1335 
     79 H79       -76.2043   30.9580  -70.8164 H         1 UNK         0.0680 
     80 H80       -74.9567   29.7343  -70.7111 H         1 UNK         0.0680 
     81 H81       -74.3555   31.7900  -72.3348 H         1 UNK         0.1032 
     82 H82       -75.3713   32.1756  -73.6851 H         1 UNK         0.1032 
     83 H83       -73.1388   32.1001  -74.5039 H         1 UNK         0.0461 
     84 H84       -72.4980   28.7387  -74.8649 H         1 UNK         0.3453 
     85 H85       -71.2356   28.6849  -73.6542 H         1 UNK         0.3453 
     86 H86       -74.8683   29.9795  -75.4489 H         1 UNK         0.2984 
     87 H87       -75.0136   29.4350  -77.5182 H         1 UNK         0.0554 
     88 H88       -74.8113   30.1470  -79.8701 H         1 UNK         0.0847 
     89 H89       -73.3431   31.0558  -79.5089 H         1 UNK         0.0847 
     90 H90       -74.8843   31.5608  -78.8325 H         1 UNK         0.0847 
     91 H91       -72.8979   28.6115  -79.1786 H         1 UNK         0.3141 
     92 H92       -72.4753   26.2605  -78.9956 H         1 UNK         0.0743 
     93 H93       -70.2294   27.0670  -77.0409 H         1 UNK         0.0784 
     94 H94       -70.0276   25.9884  -78.4204 H         1 UNK         0.0784 
     95 H95       -70.4273   27.6793  -78.6783 H         1 UNK         0.0784 
     96 H96       -72.3517   25.5413  -76.1284 H         1 UNK         0.3213 
     97 H97       -73.8006   22.4339  -76.8382 H         1 UNK         0.0855 
     98 H98       -71.0682   22.7916  -75.5079 H         1 UNK         0.0814 
     99 H99       -71.4773   21.6504  -76.7752 H         1 UNK         0.0814 
    100 H100      -72.2008   21.4785  -75.1842 H         1 UNK         0.0814 
    101 H101      -74.7465   23.5282  -75.1880 H         1 UNK         0.3105 
    102 H102      -73.8459   24.6884  -72.2516 H         1 UNK         0.0547 
    103 H103      -73.1147   26.9453  -72.9724 H         1 UNK         0.0837 
    104 H104      -74.7439   26.9927  -72.3346 H         1 UNK         0.0837 
    105 H105      -74.4904   27.0631  -74.0660 H         1 UNK         0.0837 
    106 H106      -76.1878   25.3686  -73.8744 H         1 UNK         0.3020 
    107 H107      -77.9731   22.4953  -72.6145 H         1 UNK         0.1245 
    108 H108      -79.4583   24.5229  -72.1497 H         1 UNK         0.0781 
    109 H109      -78.0328   25.5114  -72.1087 H         1 UNK         0.0781 
    110 H110      -76.1214   25.1270  -69.8709 H         1 UNK         0.0836 
    111 H111      -77.0846   25.2175  -68.4149 H         1 UNK         0.0836 
    112 H112      -77.9284   24.6771  -74.6662 H         1 UNK         0.3022 
    113 H113      -78.9378   22.4425  -77.1619 H         1 UNK         0.0747 
    114 H114      -80.8461   23.9871  -77.6246 H         1 UNK         0.0793 
    115 H115      -81.2260   22.9053  -76.2949 H         1 UNK         0.0793 
    116 H116      -80.7907   24.5750  -75.9625 H         1 UNK         0.0793 
    117 H117      -78.6938   25.3017  -77.1072 H         1 UNK         0.3047 
    118 H118      -75.2373   25.5735  -76.9947 H         1 UNK         0.0822 
    119 H119      -75.1866   26.4651  -79.3175 H         1 UNK         0.0807 
    120 H120      -76.7034   25.6453  -79.6890 H         1 UNK         0.0807 
    121 H121      -75.2540   24.7126  -79.3430 H         1 UNK         0.0807 
    122 H122      -77.0093   27.4831  -77.9882 H         1 UNK         0.2946 
    123 H123      -77.0434   29.2519  -75.4392 H         1 UNK         0.1144 
    124 H124      -78.9757   28.6907  -77.7519 H         1 UNK         0.0793 
    125 H125      -77.3831   29.4341  -77.8696 H         1 UNK         0.0793 
    126 H126      -78.6774   30.2730  -77.0487 H         1 UNK         0.0793 
    127 H127      -78.7756   29.2242  -74.0832 H         1 UNK         0.2896 
@<TRIPOS>BOND
     1    1    2 1    
     2    1   67 1    
     3    1   68 1    
     4    1   69 1    
     5    2    3 2    
     6    2    4 am   BACKBONE|DICT|INTERRES
     7    4    5 1    
     8    4   70 1    
     9    5    6 1    
    10    5   65 1    
    11    5   71 1    
    12    6    7 1    
    13    6   72 1    
    14    6   73 1    
    15    7    8 1    
    16    8    9 1    
    17    8   74 1    
    18    8   75 1    
    19    9   10 ar   
    20    9   14 ar   
    21   10   11 ar   
    22   10   76 1    
    23   11   12 ar   
    24   11   48 1    
    25   12   13 ar   
    26   12   77 1    
    27   13   14 ar   
    28   13   15 1    
    29   14   78 1    
    30   15   16 1    
    31   15   79 1    
    32   15   80 1    
    33   16   17 1    
    34   17   18 1    
    35   17   81 1    
    36   17   82 1    
    37   18   19 1    
    38   18   22 1    
    39   18   83 1    
    40   19   20 am   BACKBONE|DICT|INTERRES
    41   19   21 2    
    42   20   84 1    
    43   20   85 1    
    44   22   23 am   BACKBONE|DICT|INTERRES
    45   22   86 1    
    46   23   24 2    
    47   23   25 1    
    48   25   26 1    
    49   25   27 1    
    50   25   87 1    
    51   26   88 1    
    52   26   89 1    
    53   26   90 1    
    54   27   28 am   BACKBONE|DICT|INTERRES
    55   27   91 1    
    56   28   29 2    
    57   28   30 1    
    58   30   31 1    
    59   30   32 1    
    60   30   92 1    
    61   31   93 1    
    62   31   94 1    
    63   31   95 1    
    64   32   33 am   BACKBONE|DICT|INTERRES
    65   32   96 1    
    66   33   34 2    
    67   33   35 1    
    68   35   36 1    
    69   35   37 1    
    70   35   97 1    
    71   36   98 1    
    72   36   99 1    
    73   36  100 1    
    74   37   38 am   BACKBONE|DICT|INTERRES
    75   37  101 1    
    76   38   39 2    
    77   38   40 1    
    78   40   41 1    
    79   40   42 1    
    80   40  102 1    
    81   41  103 1    
    82   41  104 1    
    83   41  105 1    
    84   42   43 am   BACKBONE|DICT|INTERRES
    85   42  106 1    
    86   43   44 2    
    87   43   45 1    
    88   45   46 1    
    89   45   49 1    
    90   45  107 1    
    91   46   47 1    
    92   46  108 1    
    93   46  109 1    
    94   47   48 1    
    95   48  110 1    
    96   48  111 1    
    97   49   50 am   BACKBONE|DICT|INTERRES
    98   49  112 1    
    99   50   51 2    
   100   50   52 1    
   101   52   53 1    
   102   52   54 1    
   103   52  113 1    
   104   53  114 1    
   105   53  115 1    
   106   53  116 1    
   107   54   55 am   BACKBONE|DICT|INTERRES
   108   54  117 1    
   109   55   56 2    
   110   55   57 1    
   111   57   58 1    
   112   57   59 1    
   113   57  118 1    
   114   58  119 1    
   115   58  120 1    
   116   58  121 1    
   117   59   60 am   BACKBONE|DICT|INTERRES
   118   59  122 1    
   119   60   61 2    
   120   60   62 1    
   121   62   63 1    
   122   62   64 1    
   123   62  123 1    
   124   63  124 1    
   125   63  125 1    
   126   63  126 1    
   127   64   65 am   BACKBONE|DICT|INTERRES
   128   64  127 1    
   129   65   66 2    
@<TRIPOS>SUBSTRUCTURE
     1 UNK         1 GROUP             0       ****    0 ROOT    
