@<TRIPOS>MOLECULE
3R135
127   129    1
SMALL
USER_CHARGES


@<TRIPOS>ATOM
      1 CA        -82.8952   25.9052  -71.6011 C.3       0 UNK        -0.1998 
      2 C         -83.1614   26.5733  -72.9412 C.2       0 UNK         0.4909 
      3 O         -84.1866   26.3091  -73.5697 O.2       0 UNK        -0.5240 
      4 N         -82.2341   27.4223  -73.4004 N.am      1 UNK        -0.4739 
      5 CA        -82.2848   28.1798  -74.6597 C.3       1 UNK         0.0864 
      6 C6        -81.4586   29.4943  -74.5594 C.3       11 UNK        -0.0881 
      7 S7        -79.7511   29.2661  -73.9413 S.3       11 UNK        -0.2682 
      8 C8        -79.9085   29.8534  -72.2232 C.3       11 UNK         0.0289 
      9 C9        -78.6929   29.4444  -71.4075 C.ar      11 UNK        -0.0687 
     10 C10       -78.5541   28.1178  -70.9923 C.ar      11 UNK        -0.0823 
     11 C11       -77.4096   27.7047  -70.3061 C.ar      11 UNK        -0.0830 
     12 C12       -76.4142   28.6378  -70.0028 C.ar      11 UNK        -0.1021 
     13 C13       -76.5379   29.9681  -70.4162 C.ar      11 UNK        -0.0753 
     14 C14       -77.6890   30.3696  -71.1049 C.ar      11 UNK        -0.0933 
     15 C15       -75.4009   30.9486  -70.1489 C.3       11 UNK         0.0166 
     16 S16       -74.8342   31.8394  -71.6404 S.3       11 UNK        -0.2615 
     17 C17       -74.5017   30.4986  -72.8373 C.3       11 UNK        -0.0865 
     18 CA        -72.9917   30.1834  -73.0064 C.3       10 UNK         0.0862 
     19 C         -72.5107   29.1312  -71.9752 C.2       10 UNK         0.5551 
     20 N         -71.9121   29.5679  -70.8758 N.am      10 UNK        -0.7319 
     21 O         -72.7018   27.9291  -72.1469 O.2       10 UNK        -0.5018 
     22 N         -72.7262   29.7161  -74.3709 N.am      10 UNK        -0.4509 
     23 C         -71.8428   30.2414  -75.2258 C.2       10 UNK         0.4899 
     24 O         -71.1134   31.1991  -74.9620 O.2       10 UNK        -0.4839 
     25 CA        -71.7927   29.5937  -76.6231 C.3       9 UNK         0.0222 
     26 CB        -70.6553   30.1397  -77.5133 C.3       9 UNK        -0.1966 
     27 N         -71.7703   28.1286  -76.5671 N.am      9 UNK        -0.4218 
     28 C         -70.8106   27.3352  -76.0670 C.2       9 UNK         0.5020 
     29 O         -69.7531   27.7501  -75.5905 O.2       9 UNK        -0.5274 
     30 CA        -71.0641   25.8126  -76.0904 C.3       8 UNK         0.0270 
     31 CB        -71.2570   25.2839  -74.6600 C.3       8 UNK        -0.1976 
     32 N         -72.2141   25.4095  -76.9081 N.am      8 UNK        -0.4313 
     33 C         -72.2534   25.4325  -78.2482 C.2       8 UNK         0.5041 
     34 O         -71.2936   25.7362  -78.9571 O.2       8 UNK        -0.5577 
     35 CA        -73.6033   25.1006  -78.9061 C.3       7 UNK         0.0284 
     36 CB        -73.7614   23.5843  -79.1057 C.3       7 UNK        -0.1958 
     37 N         -74.7330   25.6219  -78.1311 N.am      7 UNK        -0.4454 
     38 C         -75.0807   26.9160  -78.0762 C.2       7 UNK         0.5089 
     39 O         -74.5201   27.8033  -78.7188 O.2       7 UNK        -0.5125 
     40 CA        -76.2154   27.2906  -77.1073 C.3       6 UNK         0.0408 
     41 CB        -77.5855   27.1122  -77.7776 C.3       6 UNK        -0.1791 
     42 N         -76.1677   26.5177  -75.8635 N.am      6 UNK        -0.4762 
     43 C         -75.2065   26.6553  -74.9358 C.2       6 UNK         0.5007 
     44 O         -74.3006   27.4819  -75.0280 O.2       6 UNK        -0.5032 
     45 CA        -75.2308   25.7025  -73.7197 C.3       5 UNK         0.0783 
     46 C46       -76.0313   26.3556  -72.5766 C.3       11 UNK        -0.0857 
     47 S47       -75.8969   25.4573  -70.9924 S.3       11 UNK        -0.2512 
     48 C48       -77.2104   26.2302  -69.9796 C.3       11 UNK         0.0225 
     49 N         -75.7515   24.3726  -74.0401 N.am      5 UNK        -0.4615 
     50 C         -75.3136   23.5630  -75.0116 C.2       4 UNK         0.5053 
     51 O         -74.3037   23.7865  -75.6789 O.2       4 UNK        -0.5105 
     52 CA        -76.1892   22.3388  -75.3457 C.3       4 UNK         0.0263 
     53 CB        -75.5684   21.0638  -74.7543 C.3       4 UNK        -0.1981 
     54 N         -77.5906   22.4479  -74.9063 N.am      4 UNK        -0.4224 
     55 C         -78.4487   23.4203  -75.2535 C.2       3 UNK         0.4895 
     56 O         -78.1522   24.3620  -75.9924 O.2       3 UNK        -0.5091 
     57 CA        -79.8316   23.3726  -74.5798 C.3       3 UNK         0.0250 
     58 CB        -79.7219   23.8250  -73.1116 C.3       3 UNK        -0.1996 
     59 N         -80.8163   24.2258  -75.2466 N.am      3 UNK        -0.4254 
     60 C         -81.3244   24.0403  -76.4730 C.2       2 UNK         0.5004 
     61 O         -81.0525   23.0716  -77.1842 O.2       2 UNK        -0.5226 
     62 CA        -82.3327   25.0915  -76.9825 C.3       2 UNK         0.0269 
     63 CB        -83.6701   24.4302  -77.3596 C.3       2 UNK        -0.1926 
     64 N         -82.5971   26.1441  -75.9948 N.am      2 UNK        -0.4687 
     65 C         -81.9241   27.2961  -75.8803 C.2       1 UNK         0.5165 
     66 O         -81.0482   27.6428  -76.6727 O.2       1 UNK        -0.5079 
     67 H67       -81.9176   26.1700  -71.1989 H         1 UNK         0.0900 
     68 H68       -82.9361   24.8215  -71.7072 H         1 UNK         0.0900 
     69 H69       -83.6528   26.2047  -70.8774 H         1 UNK         0.0900 
     70 H70       -81.3943   27.5768  -72.8620 H         1 UNK         0.2959 
     71 H71       -83.3222   28.4802  -74.8253 H         1 UNK         0.1079 
     72 H72       -81.9774   30.1931  -73.9014 H         1 UNK         0.0837 
     73 H73       -81.4138   29.9997  -75.5260 H         1 UNK         0.0837 
     74 H74       -80.0304   30.9377  -72.2221 H         1 UNK         0.0685 
     75 H75       -80.8079   29.4390  -71.7656 H         1 UNK         0.0685 
     76 H76       -79.3170   27.3962  -71.2488 H         1 UNK         0.1434 
     77 H77       -75.5183   28.3107  -69.4925 H         1 UNK         0.1329 
     78 H78       -77.7834   31.3942  -71.4378 H         1 UNK         0.1335 
     79 H79       -74.5439   30.4350  -69.7104 H         1 UNK         0.0680 
     80 H80       -75.7326   31.6782  -69.4092 H         1 UNK         0.0680 
     81 H81       -74.9121   30.8490  -73.7859 H         1 UNK         0.1032 
     82 H82       -75.0765   29.6027  -72.6037 H         1 UNK         0.1032 
     83 H83       -72.4293   31.1038  -72.8370 H         1 UNK         0.0461 
     84 H84       -71.6004   28.8986  -70.1900 H         1 UNK         0.3453 
     85 H85       -71.7637   30.5528  -70.7211 H         1 UNK         0.3453 
     86 H86       -73.2412   28.8800  -74.6457 H         1 UNK         0.2984 
     87 H87       -72.7348   29.8548  -77.1077 H         1 UNK         0.0554 
     88 H88       -70.6642   29.6731  -78.4983 H         1 UNK         0.0847 
     89 H89       -69.6735   29.9705  -77.0703 H         1 UNK         0.0847 
     90 H90       -70.7606   31.2147  -77.6636 H         1 UNK         0.0847 
     91 H91       -72.6155   27.6745  -76.8856 H         1 UNK         0.3141 
     92 H92       -70.1736   25.3406  -76.5107 H         1 UNK         0.0743 
     93 H93       -72.0641   25.8068  -74.1482 H         1 UNK         0.0784 
     94 H94       -71.4816   24.2170  -74.6503 H         1 UNK         0.0784 
     95 H95       -70.3538   25.4319  -74.0667 H         1 UNK         0.0784 
     96 H96       -73.0284   25.0547  -76.4128 H         1 UNK         0.3213 
     97 H97       -73.6170   25.5732  -79.8910 H         1 UNK         0.0855 
     98 H98       -73.7428   23.0419  -78.1602 H         1 UNK         0.0814 
     99 H99       -72.9523   23.1889  -79.7212 H         1 UNK         0.0814 
    100 H100      -74.6974   23.3461  -79.6112 H         1 UNK         0.0814 
    101 H101      -75.2144   24.9693  -77.5279 H         1 UNK         0.3105 
    102 H102      -76.1019   28.3464  -76.8516 H         1 UNK         0.0547 
    103 H103      -77.7638   26.0771  -78.0710 H         1 UNK         0.0837 
    104 H104      -78.3925   27.4128  -77.1094 H         1 UNK         0.0837 
    105 H105      -77.6635   27.7249  -78.6765 H         1 UNK         0.0837 
    106 H106      -76.8777   25.7979  -75.7484 H         1 UNK         0.3020 
    107 H107      -74.1992   25.5789  -73.3872 H         1 UNK         0.1245 
    108 H108      -75.6655   27.3684  -72.4037 H         1 UNK         0.0781 
    109 H109      -77.0841   26.4463  -72.8521 H         1 UNK         0.0781 
    110 H110      -78.1376   25.6752  -70.1311 H         1 UNK         0.0836 
    111 H111      -76.9591   26.1200  -68.9238 H         1 UNK         0.0836 
    112 H112      -76.5726   24.0911  -73.5271 H         1 UNK         0.3022 
    113 H113      -76.1973   22.2434  -76.4334 H         1 UNK         0.0747 
    114 H114      -76.1128   20.1731  -75.0685 H         1 UNK         0.0793 
    115 H115      -74.5359   20.9424  -75.0858 H         1 UNK         0.0793 
    116 H116      -75.5595   21.0873  -73.6638 H         1 UNK         0.0793 
    117 H117      -77.9153   21.7239  -74.2808 H         1 UNK         0.3047 
    118 H118      -80.1958   22.3436  -74.6139 H         1 UNK         0.0822 
    119 H119      -80.6861   23.7662  -72.6065 H         1 UNK         0.0807 
    120 H120      -79.3634   24.8524  -73.0305 H         1 UNK         0.0807 
    121 H121      -79.0318   23.1945  -72.5495 H         1 UNK         0.0807 
    122 H122      -81.0812   25.0701  -74.7640 H         1 UNK         0.2946 
    123 H123      -81.9024   25.5349  -77.8836 H         1 UNK         0.1144 
    124 H124      -84.3752   25.1610  -77.7561 H         1 UNK         0.0793 
    125 H125      -84.1362   23.9455  -76.5008 H         1 UNK         0.0793 
    126 H126      -83.5302   23.6692  -78.1285 H         1 UNK         0.0793 
    127 H127      -83.3053   25.9493  -75.2918 H         1 UNK         0.2896 
@<TRIPOS>BOND
     1    1    2 1    
     2    1   67 1    
     3    1   68 1    
     4    1   69 1    
     5    2    3 2    
     6    2    4 am   BACKBONE|DICT|INTERRES
     7    4    5 1    
     8    4   70 1    
     9    5    6 1    
    10    5   65 1    
    11    5   71 1    
    12    6    7 1    
    13    6   72 1    
    14    6   73 1    
    15    7    8 1    
    16    8    9 1    
    17    8   74 1    
    18    8   75 1    
    19    9   10 ar   
    20    9   14 ar   
    21   10   11 ar   
    22   10   76 1    
    23   11   12 ar   
    24   11   48 1    
    25   12   13 ar   
    26   12   77 1    
    27   13   14 ar   
    28   13   15 1    
    29   14   78 1    
    30   15   16 1    
    31   15   79 1    
    32   15   80 1    
    33   16   17 1    
    34   17   18 1    
    35   17   81 1    
    36   17   82 1    
    37   18   19 1    
    38   18   22 1    
    39   18   83 1    
    40   19   20 am   BACKBONE|DICT|INTERRES
    41   19   21 2    
    42   20   84 1    
    43   20   85 1    
    44   22   23 am   BACKBONE|DICT|INTERRES
    45   22   86 1    
    46   23   24 2    
    47   23   25 1    
    48   25   26 1    
    49   25   27 1    
    50   25   87 1    
    51   26   88 1    
    52   26   89 1    
    53   26   90 1    
    54   27   28 am   BACKBONE|DICT|INTERRES
    55   27   91 1    
    56   28   29 2    
    57   28   30 1    
    58   30   31 1    
    59   30   32 1    
    60   30   92 1    
    61   31   93 1    
    62   31   94 1    
    63   31   95 1    
    64   32   33 am   BACKBONE|DICT|INTERRES
    65   32   96 1    
    66   33   34 2    
    67   33   35 1    
    68   35   36 1    
    69   35   37 1    
    70   35   97 1    
    71   36   98 1    
    72   36   99 1    
    73   36  100 1    
    74   37   38 am   BACKBONE|DICT|INTERRES
    75   37  101 1    
    76   38   39 2    
    77   38   40 1    
    78   40   41 1    
    79   40   42 1    
    80   40  102 1    
    81   41  103 1    
    82   41  104 1    
    83   41  105 1    
    84   42   43 am   BACKBONE|DICT|INTERRES
    85   42  106 1    
    86   43   44 2    
    87   43   45 1    
    88   45   46 1    
    89   45   49 1    
    90   45  107 1    
    91   46   47 1    
    92   46  108 1    
    93   46  109 1    
    94   47   48 1    
    95   48  110 1    
    96   48  111 1    
    97   49   50 am   BACKBONE|DICT|INTERRES
    98   49  112 1    
    99   50   51 2    
   100   50   52 1    
   101   52   53 1    
   102   52   54 1    
   103   52  113 1    
   104   53  114 1    
   105   53  115 1    
   106   53  116 1    
   107   54   55 am   BACKBONE|DICT|INTERRES
   108   54  117 1    
   109   55   56 2    
   110   55   57 1    
   111   57   58 1    
   112   57   59 1    
   113   57  118 1    
   114   58  119 1    
   115   58  120 1    
   116   58  121 1    
   117   59   60 am   BACKBONE|DICT|INTERRES
   118   59  122 1    
   119   60   61 2    
   120   60   62 1    
   121   62   63 1    
   122   62   64 1    
   123   62  123 1    
   124   63  124 1    
   125   63  125 1    
   126   63  126 1    
   127   64   65 am   BACKBONE|DICT|INTERRES
   128   64  127 1    
   129   65   66 2    
@<TRIPOS>SUBSTRUCTURE
     1 UNK         1 GROUP             0       ****    0 ROOT    
