@<TRIPOS>MOLECULE
3R135
127   129    1
SMALL
USER_CHARGES


@<TRIPOS>ATOM
      1 CA        -80.8133   25.9391  -70.5423 C.3       0 UNK        -0.1998 
      2 C         -81.9564   26.3262  -71.4690 C.2       0 UNK         0.4909 
      3 O         -83.0857   25.8791  -71.2683 O.2       0 UNK        -0.5240 
      4 N         -81.6719   27.1507  -72.4856 N.am      1 UNK        -0.4739 
      5 CA        -82.6222   27.5633  -73.5284 C.3       1 UNK         0.0864 
      6 C6        -82.1698   28.8619  -74.2501 C.3       11 UNK        -0.0881 
      7 S7        -80.4218   28.8411  -74.7905 S.3       11 UNK        -0.2682 
      8 C8        -79.6640   30.0231  -73.6304 C.3       11 UNK         0.0289 
      9 C9        -78.2417   29.6108  -73.2891 C.ar      11 UNK        -0.0687 
     10 C10       -78.0104   28.7400  -72.2209 C.ar      11 UNK        -0.0823 
     11 C11       -76.7122   28.3365  -71.9005 C.ar      11 UNK        -0.0830 
     12 C12       -75.6392   28.8223  -72.6526 C.ar      11 UNK        -0.1021 
     13 C13       -75.8536   29.7049  -73.7167 C.ar      11 UNK        -0.0753 
     14 C14       -77.1598   30.0959  -74.0305 C.ar      11 UNK        -0.0933 
     15 C15       -74.6823   30.2075  -74.5500 C.3       11 UNK         0.0166 
     16 S16       -74.0109   31.7823  -73.9288 S.3       11 UNK        -0.2615 
     17 C17       -72.9730   31.2217  -72.5344 C.3       11 UNK        -0.0865 
     18 CA        -71.4489   31.2737  -72.8207 C.3       10 UNK         0.0862 
     19 C         -70.6644   30.7529  -71.5799 C.2       10 UNK         0.5551 
     20 N         -70.1185   29.5413  -71.6068 N.am      10 UNK        -0.7319 
     21 O         -70.5558   31.4598  -70.5812 O.2       10 UNK        -0.5018 
     22 N         -71.0903   30.5911  -74.0746 N.am      10 UNK        -0.4509 
     23 C         -69.8974   30.6773  -74.6762 C.2       10 UNK         0.4899 
     24 O         -69.0249   31.4761  -74.3316 O.2       10 UNK        -0.4839 
     25 CA        -69.6129   29.7236  -75.8576 C.3       9 UNK         0.0222 
     26 CB        -68.2064   29.0990  -75.7458 C.3       9 UNK        -0.1966 
     27 N         -70.6115   28.6677  -76.0900 N.am      9 UNK        -0.4218 
     28 C         -71.0190   27.6943  -75.2628 C.2       9 UNK         0.5020 
     29 O         -70.6545   27.6043  -74.0879 O.2       9 UNK        -0.5274 
     30 CA        -72.0202   26.6722  -75.8492 C.3       8 UNK         0.0270 
     31 CB        -72.4679   25.6313  -74.8061 C.3       8 UNK        -0.1976 
     32 N         -73.2030   27.3002  -76.4639 N.am      8 UNK        -0.4313 
     33 C         -73.2034   27.9317  -77.6508 C.2       8 UNK         0.5041 
     34 O         -72.1856   28.0409  -78.3383 O.2       8 UNK        -0.5577 
     35 CA        -74.4961   28.6162  -78.1441 C.3       7 UNK         0.0284 
     36 CB        -74.6733   28.5012  -79.6739 C.3       7 UNK        -0.1958 
     37 N         -75.7191   28.2222  -77.4378 N.am      7 UNK        -0.4454 
     38 C         -76.3275   27.0301  -77.4516 C.2       7 UNK         0.5089 
     39 O         -75.9484   26.0510  -78.0970 O.2       7 UNK        -0.5125 
     40 CA        -77.5764   26.9246  -76.5593 C.3       6 UNK         0.0408 
     41 CB        -78.8330   26.7043  -77.4162 C.3       6 UNK        -0.1791 
     42 N         -77.4717   25.8707  -75.5453 N.am      6 UNK        -0.4762 
     43 C         -76.4558   25.7289  -74.6779 C.2       6 UNK         0.5007 
     44 O         -75.4643   26.4587  -74.6816 O.2       6 UNK        -0.5032 
     45 CA        -76.5293   24.5872  -73.6451 C.3       5 UNK         0.0783 
     46 C46       -77.0633   25.0696  -72.2704 C.3       11 UNK        -0.0857 
     47 S47       -75.7453   25.7990  -71.2398 S.3       11 UNK        -0.2512 
     48 C48       -76.4698   27.3917  -70.7304 C.3       11 UNK         0.0225 
     49 N         -77.2864   23.4327  -74.1417 N.am      5 UNK        -0.4615 
     50 C         -76.8862   22.1588  -74.0153 C.2       4 UNK         0.5053 
     51 O         -75.8303   21.8263  -73.4758 O.2       4 UNK        -0.5105 
     52 CA        -77.8094   21.0508  -74.5625 C.3       4 UNK         0.0263 
     53 CB        -78.6182   20.4188  -73.4177 C.3       4 UNK        -0.1981 
     54 N         -78.7350   21.5098  -75.5984 N.am      4 UNK        -0.4224 
     55 C         -78.3788   21.9280  -76.8201 C.2       3 UNK         0.4895 
     56 O         -77.2308   21.8494  -77.2581 O.2       3 UNK        -0.5091 
     57 CA        -79.4748   22.5597  -77.7027 C.3       3 UNK         0.0250 
     58 CB        -79.8818   21.5859  -78.8213 C.3       3 UNK        -0.1996 
     59 N         -80.6902   23.0200  -77.0105 N.am      3 UNK        -0.4254 
     60 C         -80.7533   23.8699  -75.9756 C.2       2 UNK         0.5004 
     61 O         -79.7645   24.2997  -75.3736 O.2       2 UNK        -0.5226 
     62 CA        -82.1552   24.2753  -75.5110 C.3       2 UNK         0.0269 
     63 CB        -82.8310   23.1330  -74.7312 C.3       2 UNK        -0.1926 
     64 N         -82.0405   25.4465  -74.6483 N.am      2 UNK        -0.4687 
     65 C         -82.9421   26.4278  -74.5275 C.2       1 UNK         0.5165 
     66 O         -84.0034   26.4552  -75.1531 O.2       1 UNK        -0.5079 
     67 H67       -80.9931   26.3303  -69.5413 H         1 UNK         0.0900 
     68 H68       -79.8552   26.3215  -70.8904 H         1 UNK         0.0900 
     69 H69       -80.7368   24.8541  -70.4753 H         1 UNK         0.0900 
     70 H70       -80.7295   27.4865  -72.6201 H         1 UNK         0.2959 
     71 H71       -83.5699   27.7881  -73.0334 H         1 UNK         0.1079 
     72 H72       -82.7979   29.0623  -75.1206 H         1 UNK         0.0837 
     73 H73       -82.3327   29.7138  -73.5889 H         1 UNK         0.0837 
     74 H74       -80.2486   30.0841  -72.7113 H         1 UNK         0.0685 
     75 H75       -79.6801   31.0210  -74.0710 H         1 UNK         0.0685 
     76 H76       -78.8442   28.3785  -71.6373 H         1 UNK         0.1434 
     77 H77       -74.6397   28.4845  -72.4200 H         1 UNK         0.1329 
     78 H78       -77.3360   30.7729  -74.8551 H         1 UNK         0.1335 
     79 H79       -73.8942   29.4548  -74.5907 H         1 UNK         0.0680 
     80 H80       -75.0068   30.3635  -75.5785 H         1 UNK         0.0680 
     81 H81       -73.2111   31.8551  -71.6776 H         1 UNK         0.1032 
     82 H82       -73.2626   30.2145  -72.2394 H         1 UNK         0.1032 
     83 H83       -71.1766   32.3240  -72.9427 H         1 UNK         0.0461 
     84 H84       -70.2236   28.9485  -72.4216 H         1 UNK         0.3453 
     85 H85       -69.6112   29.2082  -70.8027 H         1 UNK         0.3453 
     86 H86       -71.7408   29.8985  -74.4089 H         1 UNK         0.2984 
     87 H87       -69.6278   30.3468  -76.7527 H         1 UNK         0.0554 
     88 H88       -67.4331   29.8675  -75.7104 H         1 UNK         0.0847 
     89 H89       -67.9850   28.4624  -76.6024 H         1 UNK         0.0847 
     90 H90       -68.1047   28.4947  -74.8437 H         1 UNK         0.0847 
     91 H91       -71.0104   28.6372  -77.0280 H         1 UNK         0.3141 
     92 H92       -71.4851   26.1289  -76.6308 H         1 UNK         0.0743 
     93 H93       -71.6137   25.0760  -74.4168 H         1 UNK         0.0784 
     94 H94       -72.9630   26.1009  -73.9550 H         1 UNK         0.0784 
     95 H95       -73.1557   24.9042  -75.2379 H         1 UNK         0.0784 
     96 H96       -74.0724   27.2182  -75.9424 H         1 UNK         0.3213 
     97 H97       -74.3597   29.6754  -77.9211 H         1 UNK         0.0855 
     98 H98       -74.7281   27.4622  -79.9997 H         1 UNK         0.0814 
     99 H99       -73.8359   28.9595  -80.2016 H         1 UNK         0.0814 
    100 H100      -75.5786   29.0072  -80.0092 H         1 UNK         0.0814 
    101 H101      -76.1278   28.9369  -76.8526 H         1 UNK         0.3105 
    102 H102      -77.7035   27.8638  -76.0175 H         1 UNK         0.0547 
    103 H103      -78.9510   27.5050  -78.1472 H         1 UNK         0.0837 
    104 H104      -78.7843   25.7655  -77.9667 H         1 UNK         0.0837 
    105 H105      -79.7357   26.6915  -76.8062 H         1 UNK         0.0837 
    106 H106      -78.2723   25.2469  -75.4805 H         1 UNK         0.3020 
    107 H107      -75.4905   24.2741  -73.5140 H         1 UNK         0.1245 
    108 H108      -77.4617   24.2262  -71.7041 H         1 UNK         0.0781 
    109 H109      -77.8979   25.7621  -72.3896 H         1 UNK         0.0781 
    110 H110      -77.3926   27.2013  -70.1805 H         1 UNK         0.0836 
    111 H111      -75.7912   27.8738  -70.0254 H         1 UNK         0.0836 
    112 H112      -78.1741   23.6280  -74.5953 H         1 UNK         0.3022 
    113 H113      -77.1711   20.2798  -74.9992 H         1 UNK         0.0747 
    114 H114      -77.9578   20.0354  -72.6385 H         1 UNK         0.0793 
    115 H115      -79.2192   19.5805  -73.7708 H         1 UNK         0.0793 
    116 H116      -79.2884   21.1413  -72.9499 H         1 UNK         0.0793 
    117 H117      -79.7019   21.6145  -75.3292 H         1 UNK         0.3047 
    118 H118      -79.0230   23.4363  -78.1693 H         1 UNK         0.0822 
    119 H119      -80.5564   22.0585  -79.5354 H         1 UNK         0.0807 
    120 H120      -80.3784   20.7002  -78.4230 H         1 UNK         0.0807 
    121 H121      -79.0102   21.2455  -79.3826 H         1 UNK         0.0807 
    122 H122      -81.5615   22.7014  -77.4106 H         1 UNK         0.2946 
    123 H123      -82.7479   24.5255  -76.3942 H         1 UNK         0.1144 
    124 H124      -82.9439   22.2412  -75.3488 H         1 UNK         0.0793 
    125 H125      -83.8283   23.4197  -74.3969 H         1 UNK         0.0793 
    126 H126      -82.2538   22.8516  -73.8493 H         1 UNK         0.0793 
    127 H127      -81.1576   25.5264  -74.1611 H         1 UNK         0.2896 
@<TRIPOS>BOND
     1    1    2 1    
     2    1   67 1    
     3    1   68 1    
     4    1   69 1    
     5    2    3 2    
     6    2    4 am   BACKBONE|DICT|INTERRES
     7    4    5 1    
     8    4   70 1    
     9    5    6 1    
    10    5   65 1    
    11    5   71 1    
    12    6    7 1    
    13    6   72 1    
    14    6   73 1    
    15    7    8 1    
    16    8    9 1    
    17    8   74 1    
    18    8   75 1    
    19    9   10 ar   
    20    9   14 ar   
    21   10   11 ar   
    22   10   76 1    
    23   11   12 ar   
    24   11   48 1    
    25   12   13 ar   
    26   12   77 1    
    27   13   14 ar   
    28   13   15 1    
    29   14   78 1    
    30   15   16 1    
    31   15   79 1    
    32   15   80 1    
    33   16   17 1    
    34   17   18 1    
    35   17   81 1    
    36   17   82 1    
    37   18   19 1    
    38   18   22 1    
    39   18   83 1    
    40   19   20 am   BACKBONE|DICT|INTERRES
    41   19   21 2    
    42   20   84 1    
    43   20   85 1    
    44   22   23 am   BACKBONE|DICT|INTERRES
    45   22   86 1    
    46   23   24 2    
    47   23   25 1    
    48   25   26 1    
    49   25   27 1    
    50   25   87 1    
    51   26   88 1    
    52   26   89 1    
    53   26   90 1    
    54   27   28 am   BACKBONE|DICT|INTERRES
    55   27   91 1    
    56   28   29 2    
    57   28   30 1    
    58   30   31 1    
    59   30   32 1    
    60   30   92 1    
    61   31   93 1    
    62   31   94 1    
    63   31   95 1    
    64   32   33 am   BACKBONE|DICT|INTERRES
    65   32   96 1    
    66   33   34 2    
    67   33   35 1    
    68   35   36 1    
    69   35   37 1    
    70   35   97 1    
    71   36   98 1    
    72   36   99 1    
    73   36  100 1    
    74   37   38 am   BACKBONE|DICT|INTERRES
    75   37  101 1    
    76   38   39 2    
    77   38   40 1    
    78   40   41 1    
    79   40   42 1    
    80   40  102 1    
    81   41  103 1    
    82   41  104 1    
    83   41  105 1    
    84   42   43 am   BACKBONE|DICT|INTERRES
    85   42  106 1    
    86   43   44 2    
    87   43   45 1    
    88   45   46 1    
    89   45   49 1    
    90   45  107 1    
    91   46   47 1    
    92   46  108 1    
    93   46  109 1    
    94   47   48 1    
    95   48  110 1    
    96   48  111 1    
    97   49   50 am   BACKBONE|DICT|INTERRES
    98   49  112 1    
    99   50   51 2    
   100   50   52 1    
   101   52   53 1    
   102   52   54 1    
   103   52  113 1    
   104   53  114 1    
   105   53  115 1    
   106   53  116 1    
   107   54   55 am   BACKBONE|DICT|INTERRES
   108   54  117 1    
   109   55   56 2    
   110   55   57 1    
   111   57   58 1    
   112   57   59 1    
   113   57  118 1    
   114   58  119 1    
   115   58  120 1    
   116   58  121 1    
   117   59   60 am   BACKBONE|DICT|INTERRES
   118   59  122 1    
   119   60   61 2    
   120   60   62 1    
   121   62   63 1    
   122   62   64 1    
   123   62  123 1    
   124   63  124 1    
   125   63  125 1    
   126   63  126 1    
   127   64   65 am   BACKBONE|DICT|INTERRES
   128   64  127 1    
   129   65   66 2    
@<TRIPOS>SUBSTRUCTURE
     1 UNK         1 GROUP             0       ****    0 ROOT    
