@<TRIPOS>MOLECULE
3R135
127   129    1
SMALL
USER_CHARGES


@<TRIPOS>ATOM
      1 CA        -78.3610   29.4551  -74.6976 C.3       0 UNK        -0.1998 
      2 C         -79.7682   28.9758  -74.3775 C.2       0 UNK         0.4909 
      3 O         -80.6707   29.1289  -75.2003 O.2       0 UNK        -0.5240 
      4 N         -79.9478   28.3934  -73.1845 N.am      1 UNK        -0.4739 
      5 CA        -81.2123   27.8838  -72.6305 C.3       1 UNK         0.0864 
      6 C6        -82.2422   28.9973  -72.2965 C.3       11 UNK        -0.0881 
      7 S7        -81.5910   30.4085  -71.3256 S.3       11 UNK        -0.2682 
      8 C8        -80.8061   29.6393  -69.8659 C.3       11 UNK         0.0289 
      9 C9        -79.3335   29.3160  -70.0995 C.ar      11 UNK        -0.0687 
     10 C10       -78.8822   27.9931  -70.0758 C.ar      11 UNK        -0.0823 
     11 C11       -77.5418   27.6951  -70.3318 C.ar      11 UNK        -0.0830 
     12 C12       -76.6350   28.7361  -70.5521 C.ar      11 UNK        -0.1021 
     13 C13       -77.0605   30.0709  -70.5435 C.ar      11 UNK        -0.0753 
     14 C14       -78.4146   30.3466  -70.3246 C.ar      11 UNK        -0.0933 
     15 C15       -76.0893   31.2440  -70.6917 C.3       11 UNK         0.0166 
     16 S16       -74.4968   30.8611  -71.5030 S.3       11 UNK        -0.2615 
     17 C17       -74.8456   31.1936  -73.2665 C.3       11 UNK        -0.0865 
     18 CA        -74.4920   30.0130  -74.2208 C.3       10 UNK         0.0862 
     19 C         -74.7794   30.3585  -75.7154 C.2       10 UNK         0.5551 
     20 N         -73.9855   29.8938  -76.6733 N.am      10 UNK        -0.7319 
     21 O         -75.7526   31.0439  -76.0168 O.2       10 UNK        -0.5018 
     22 N         -73.1563   29.4333  -73.9933 N.am      10 UNK        -0.4509 
     23 C         -71.9843   30.0753  -74.0968 C.2       10 UNK         0.4899 
     24 O         -71.8716   31.2825  -74.3116 O.2       10 UNK        -0.4839 
     25 CA        -70.7066   29.2261  -73.9545 C.3       9 UNK         0.0222 
     26 CB        -70.1610   29.3263  -72.5205 C.3       9 UNK        -0.1966 
     27 N         -70.8623   27.8105  -74.3136 N.am      9 UNK        -0.4218 
     28 C         -71.2296   27.3424  -75.5157 C.2       9 UNK         0.5020 
     29 O         -71.5156   28.0724  -76.4681 O.2       9 UNK        -0.5274 
     30 CA        -71.2760   25.8120  -75.6822 C.3       8 UNK         0.0270 
     31 CB        -71.5373   25.0565  -74.3619 C.3       8 UNK        -0.1976 
     32 N         -72.3293   25.4612  -76.6311 N.am      8 UNK        -0.4313 
     33 C         -72.1549   24.8800  -77.8241 C.2       8 UNK         0.5041 
     34 O         -71.0533   24.5461  -78.2649 O.2       8 UNK        -0.5577 
     35 CA        -73.4099   24.5897  -78.6738 C.3       7 UNK         0.0284 
     36 CB        -73.6586   23.0741  -78.7583 C.3       7 UNK        -0.1958 
     37 N         -74.6257   25.2353  -78.1738 N.am      7 UNK        -0.4454 
     38 C         -74.9094   26.5394  -78.2859 C.2       7 UNK         0.5089 
     39 O         -74.2231   27.3376  -78.9232 O.2       7 UNK        -0.5125 
     40 CA        -76.1555   27.0412  -77.5334 C.3       6 UNK         0.0408 
     41 CB        -77.3956   26.9779  -78.4366 C.3       6 UNK        -0.1791 
     42 N         -76.4235   26.3147  -76.2878 N.am      6 UNK        -0.4762 
     43 C         -75.6040   26.2563  -75.2261 C.2       6 UNK         0.5007 
     44 O         -74.5061   26.8071  -75.1713 O.2       6 UNK        -0.5032 
     45 CA        -76.0893   25.4212  -74.0310 C.3       5 UNK         0.0783 
     46 C46       -77.1101   26.2389  -73.2071 C.3       11 UNK        -0.0857 
     47 S47       -77.7896   25.3342  -71.7771 S.3       11 UNK        -0.2512 
     48 C48       -77.0731   26.2463  -70.3699 C.3       11 UNK         0.0225 
     49 N         -76.6226   24.1411  -74.5002 N.am      5 UNK        -0.4615 
     50 C         -75.8677   23.1070  -74.8937 C.2       4 UNK         0.5053 
     51 O         -74.6388   23.0955  -74.8327 O.2       4 UNK        -0.5105 
     52 CA        -76.6035   21.8838  -75.4700 C.3       4 UNK         0.0263 
     53 CB        -76.9386   20.8846  -74.3514 C.3       4 UNK        -0.1981 
     54 N         -77.8302   22.2328  -76.1926 N.am      4 UNK        -0.4224 
     55 C         -77.8673   22.9379  -77.3327 C.2       3 UNK         0.4895 
     56 O         -76.8648   23.3341  -77.9256 O.2       3 UNK        -0.5091 
     57 CA        -79.2602   23.3112  -77.8735 C.3       3 UNK         0.0250 
     58 CB        -79.8089   22.1872  -78.7665 C.3       3 UNK        -0.1996 
     59 N         -80.2423   23.6357  -76.8299 N.am      3 UNK        -0.4254 
     60 C         -80.0855   24.5868  -75.8985 C.2       2 UNK         0.5004 
     61 O         -79.0723   25.2862  -75.8010 O.2       2 UNK        -0.5226 
     62 CA        -81.2214   24.7513  -74.8810 C.3       2 UNK         0.0269 
     63 CB        -81.3530   23.5072  -73.9821 C.3       2 UNK        -0.1926 
     64 N         -80.9251   25.9133  -74.0515 N.am      2 UNK        -0.4687 
     65 C         -81.8083   26.7164  -73.4505 C.2       1 UNK         0.5165 
     66 O         -83.0281   26.5489  -73.5064 O.2       1 UNK        -0.5079 
     67 H67       -77.9255   28.8452  -75.4887 H         1 UNK         0.0900 
     68 H68       -77.7077   29.4078  -73.8266 H         1 UNK         0.0900 
     69 H69       -78.3855   30.4891  -75.0407 H         1 UNK         0.0900 
     70 H70       -79.1654   28.3395  -72.5462 H         1 UNK         0.2959 
     71 H71       -80.9553   27.4057  -71.6885 H         1 UNK         0.1079 
     72 H72       -82.6625   29.4016  -73.2191 H         1 UNK         0.0837 
     73 H73       -83.0849   28.5777  -71.7438 H         1 UNK         0.0837 
     74 H74       -80.8779   30.3352  -69.0289 H         1 UNK         0.0685 
     75 H75       -81.3682   28.7520  -69.5707 H         1 UNK         0.0685 
     76 H76       -79.5743   27.1858  -69.8789 H         1 UNK         0.1434 
     77 H77       -75.5936   28.4980  -70.7153 H         1 UNK         0.1329 
     78 H78       -78.7587   31.3722  -70.3162 H         1 UNK         0.1335 
     79 H79       -75.8673   31.6127  -69.6896 H         1 UNK         0.0680 
     80 H80       -76.5712   32.0712  -71.2154 H         1 UNK         0.0680 
     81 H81       -74.2937   32.0904  -73.5524 H         1 UNK         0.1032 
     82 H82       -75.9004   31.4501  -73.3781 H         1 UNK         0.1032 
     83 H83       -75.1861   29.2061  -73.9861 H         1 UNK         0.0461 
     84 H84       -74.1893   30.1126  -77.6346 H         1 UNK         0.3453 
     85 H85       -73.1963   29.2970  -76.4523 H         1 UNK         0.3453 
     86 H86       -73.1422   28.4306  -73.8734 H         1 UNK         0.2984 
     87 H87       -69.9622   29.6500  -74.6316 H         1 UNK         0.0554 
     88 H88       -69.2019   28.8178  -72.4209 H         1 UNK         0.0847 
     89 H89       -70.8510   28.8934  -71.7950 H         1 UNK         0.0847 
     90 H90       -70.0031   30.3676  -72.2353 H         1 UNK         0.0847 
     91 H91       -70.6517   27.1384  -73.5899 H         1 UNK         0.3141 
     92 H92       -70.3004   25.5066  -76.0650 H         1 UNK         0.0743 
     93 H93       -70.7073   25.1645  -73.6631 H         1 UNK         0.0784 
     94 H94       -72.4446   25.4053  -73.8665 H         1 UNK         0.0784 
     95 H95       -71.6575   23.9877  -74.5420 H         1 UNK         0.0784 
     96 H96       -73.2557   25.7875  -76.3765 H         1 UNK         0.3213 
     97 H97       -73.2121   24.9618  -79.6813 H         1 UNK         0.0855 
     98 H98       -72.7857   22.5530  -79.1539 H         1 UNK         0.0814 
     99 H99       -74.4968   22.8457  -79.4168 H         1 UNK         0.0814 
    100 H100      -73.8778   22.6486  -77.7778 H         1 UNK         0.0814 
    101 H101      -75.3065   24.6350  -77.7186 H         1 UNK         0.3105 
    102 H102      -75.9877   28.0854  -77.2693 H         1 UNK         0.0547 
    103 H103      -77.2584   27.5917  -79.3276 H         1 UNK         0.0837 
    104 H104      -77.5954   25.9604  -78.7712 H         1 UNK         0.0837 
    105 H105      -78.2843   27.3446  -77.9222 H         1 UNK         0.0837 
    106 H106      -77.3245   25.8452  -76.2223 H         1 UNK         0.3020 
    107 H107      -75.2232   25.2214  -73.3954 H         1 UNK         0.1245 
    108 H108      -77.9516   26.5363  -73.8305 H         1 UNK         0.0781 
    109 H109      -76.6491   27.1676  -72.8695 H         1 UNK         0.0781 
    110 H110      -75.9848   26.1861  -70.4221 H         1 UNK         0.0836 
    111 H111      -77.3626   25.7509  -69.4421 H         1 UNK         0.0836 
    112 H112      -77.6240   24.0976  -74.6276 H         1 UNK         0.3022 
    113 H113      -75.9269   21.3961  -76.1753 H         1 UNK         0.0747 
    114 H114      -77.3883   19.9757  -74.7517 H         1 UNK         0.0793 
    115 H115      -76.0379   20.5877  -73.8120 H         1 UNK         0.0793 
    116 H116      -77.6294   21.3100  -73.6220 H         1 UNK         0.0793 
    117 H117      -78.7046   21.9466  -75.7775 H         1 UNK         0.3047 
    118 H118      -79.1404   24.2030  -78.4906 H         1 UNK         0.0822 
    119 H119      -80.7432   22.4805  -79.2455 H         1 UNK         0.0807 
    120 H120      -79.9929   21.2728  -78.2010 H         1 UNK         0.0807 
    121 H121      -79.1035   21.9420  -79.5620 H         1 UNK         0.0807 
    122 H122      -81.0998   23.1018  -76.8388 H         1 UNK         0.2946 
    123 H123      -82.1506   24.9198  -75.4304 H         1 UNK         0.1144 
    124 H124      -82.1474   23.6341  -73.2463 H         1 UNK         0.0793 
    125 H125      -80.4285   23.3036  -73.4397 H         1 UNK         0.0793 
    126 H126      -81.5971   22.6171  -74.5629 H         1 UNK         0.0793 
    127 H127      -79.9458   26.1660  -74.0324 H         1 UNK         0.2896 
@<TRIPOS>BOND
     1    1    2 1    
     2    1   67 1    
     3    1   68 1    
     4    1   69 1    
     5    2    3 2    
     6    2    4 am   BACKBONE|DICT|INTERRES
     7    4    5 1    
     8    4   70 1    
     9    5    6 1    
    10    5   65 1    
    11    5   71 1    
    12    6    7 1    
    13    6   72 1    
    14    6   73 1    
    15    7    8 1    
    16    8    9 1    
    17    8   74 1    
    18    8   75 1    
    19    9   10 ar   
    20    9   14 ar   
    21   10   11 ar   
    22   10   76 1    
    23   11   12 ar   
    24   11   48 1    
    25   12   13 ar   
    26   12   77 1    
    27   13   14 ar   
    28   13   15 1    
    29   14   78 1    
    30   15   16 1    
    31   15   79 1    
    32   15   80 1    
    33   16   17 1    
    34   17   18 1    
    35   17   81 1    
    36   17   82 1    
    37   18   19 1    
    38   18   22 1    
    39   18   83 1    
    40   19   20 am   BACKBONE|DICT|INTERRES
    41   19   21 2    
    42   20   84 1    
    43   20   85 1    
    44   22   23 am   BACKBONE|DICT|INTERRES
    45   22   86 1    
    46   23   24 2    
    47   23   25 1    
    48   25   26 1    
    49   25   27 1    
    50   25   87 1    
    51   26   88 1    
    52   26   89 1    
    53   26   90 1    
    54   27   28 am   BACKBONE|DICT|INTERRES
    55   27   91 1    
    56   28   29 2    
    57   28   30 1    
    58   30   31 1    
    59   30   32 1    
    60   30   92 1    
    61   31   93 1    
    62   31   94 1    
    63   31   95 1    
    64   32   33 am   BACKBONE|DICT|INTERRES
    65   32   96 1    
    66   33   34 2    
    67   33   35 1    
    68   35   36 1    
    69   35   37 1    
    70   35   97 1    
    71   36   98 1    
    72   36   99 1    
    73   36  100 1    
    74   37   38 am   BACKBONE|DICT|INTERRES
    75   37  101 1    
    76   38   39 2    
    77   38   40 1    
    78   40   41 1    
    79   40   42 1    
    80   40  102 1    
    81   41  103 1    
    82   41  104 1    
    83   41  105 1    
    84   42   43 am   BACKBONE|DICT|INTERRES
    85   42  106 1    
    86   43   44 2    
    87   43   45 1    
    88   45   46 1    
    89   45   49 1    
    90   45  107 1    
    91   46   47 1    
    92   46  108 1    
    93   46  109 1    
    94   47   48 1    
    95   48  110 1    
    96   48  111 1    
    97   49   50 am   BACKBONE|DICT|INTERRES
    98   49  112 1    
    99   50   51 2    
   100   50   52 1    
   101   52   53 1    
   102   52   54 1    
   103   52  113 1    
   104   53  114 1    
   105   53  115 1    
   106   53  116 1    
   107   54   55 am   BACKBONE|DICT|INTERRES
   108   54  117 1    
   109   55   56 2    
   110   55   57 1    
   111   57   58 1    
   112   57   59 1    
   113   57  118 1    
   114   58  119 1    
   115   58  120 1    
   116   58  121 1    
   117   59   60 am   BACKBONE|DICT|INTERRES
   118   59  122 1    
   119   60   61 2    
   120   60   62 1    
   121   62   63 1    
   122   62   64 1    
   123   62  123 1    
   124   63  124 1    
   125   63  125 1    
   126   63  126 1    
   127   64   65 am   BACKBONE|DICT|INTERRES
   128   64  127 1    
   129   65   66 2    
@<TRIPOS>SUBSTRUCTURE
     1 UNK         1 GROUP             0       ****    0 ROOT    
