@<TRIPOS>MOLECULE
3R135
127   129    1
SMALL
USER_CHARGES


@<TRIPOS>ATOM
      1 CA        -77.7911   21.2625  -76.5035 C.3       0 UNK        -0.1998 
      2 C         -78.0423   21.2871  -75.0041 C.2       0 UNK         0.4909 
      3 O         -78.4954   20.2876  -74.4458 O.2       0 UNK        -0.5240 
      4 N         -77.7422   22.4138  -74.3448 N.am      1 UNK        -0.4739 
      5 CA        -77.8760   22.5795  -72.8911 C.3       1 UNK         0.0864 
      6 C6        -76.8518   23.6000  -72.3340 C.3       11 UNK        -0.0881 
      7 S7        -76.9748   25.2826  -73.0391 S.3       11 UNK        -0.2682 
      8 C8        -77.8822   26.1413  -71.7141 C.3       11 UNK         0.0289 
      9 C9        -77.7341   27.6486  -71.8322 C.ar      11 UNK        -0.0687 
     10 C10       -78.5658   28.3726  -72.6895 C.ar      11 UNK        -0.0823 
     11 C11       -78.4086   29.7557  -72.8328 C.ar      11 UNK        -0.0830 
     12 C12       -77.4422   30.4178  -72.0690 C.ar      11 UNK        -0.1021 
     13 C13       -76.6210   29.7079  -71.1888 C.ar      11 UNK        -0.0753 
     14 C14       -76.7663   28.3219  -71.0811 C.ar      11 UNK        -0.0933 
     15 C15       -75.5927   30.4354  -70.3350 C.3       11 UNK         0.0166 
     16 S16       -73.9442   30.4352  -71.1026 S.3       11 UNK        -0.2615 
     17 C17       -74.1039   31.7973  -72.3101 C.3       11 UNK        -0.0865 
     18 CA        -72.8574   31.9860  -73.2151 C.3       10 UNK         0.0862 
     19 C         -71.6241   32.5165  -72.4260 C.2       10 UNK         0.5551 
     20 N         -71.6111   33.8026  -72.1007 N.am      10 UNK        -0.7319 
     21 O         -70.7002   31.7809  -72.0832 O.2       10 UNK        -0.5018 
     22 N         -72.5995   30.7768  -74.0080 N.am      10 UNK        -0.4509 
     23 C         -71.7321   30.6730  -75.0223 C.2       10 UNK         0.4899 
     24 O         -71.0607   31.6154  -75.4454 O.2       10 UNK        -0.4839 
     25 CA        -71.6406   29.3066  -75.7295 C.3       9 UNK         0.0222 
     26 CB        -70.2077   28.9602  -76.1860 C.3       9 UNK        -0.1966 
     27 N         -72.2574   28.2023  -74.9840 N.am      9 UNK        -0.4218 
     28 C         -71.8228   27.5989  -73.8665 C.2       9 UNK         0.5020 
     29 O         -70.7896   27.9009  -73.2696 O.2       9 UNK        -0.5274 
     30 CA        -72.6936   26.4524  -73.3247 C.3       8 UNK         0.0270 
     31 CB        -73.7496   26.9874  -72.3468 C.3       8 UNK        -0.1976 
     32 N         -73.3579   25.7218  -74.4063 N.am      8 UNK        -0.4313 
     33 C         -72.8067   24.6984  -75.0734 C.2       8 UNK         0.5041 
     34 O         -71.7270   24.1855  -74.7763 O.2       8 UNK        -0.5577 
     35 CA        -73.5803   24.1659  -76.2931 C.3       7 UNK         0.0284 
     36 CB        -74.6421   23.1484  -75.8567 C.3       7 UNK        -0.1958 
     37 N         -74.2156   25.2327  -77.0712 N.am      7 UNK        -0.4454 
     38 C         -73.5396   26.1567  -77.7718 C.2       7 UNK         0.5089 
     39 O         -72.3181   26.1396  -77.9217 O.2       7 UNK        -0.5125 
     40 CA        -74.3451   27.3131  -78.3961 C.3       6 UNK         0.0408 
     41 CB        -74.5472   27.0702  -79.9001 C.3       6 UNK        -0.1791 
     42 N         -75.6494   27.5604  -77.7734 N.am      6 UNK        -0.4762 
     43 C         -75.8677   27.8684  -76.4860 C.2       6 UNK         0.5007 
     44 O         -74.9680   27.9894  -75.6546 O.2       6 UNK        -0.5032 
     45 CA        -77.3342   28.0261  -76.0423 C.3       5 UNK         0.0783 
     46 C46       -77.7170   29.5269  -75.9624 C.3       11 UNK        -0.0857 
     47 S47       -79.4536   29.7757  -75.4432 S.3       11 UNK        -0.2512 
     48 C48       -79.2799   30.5508  -73.7998 C.3       11 UNK         0.0225 
     49 N         -78.2879   27.2735  -76.8674 N.am      5 UNK        -0.4615 
     50 C         -78.3179   25.9493  -77.0607 C.2       4 UNK         0.5053 
     51 O         -77.4625   25.1632  -76.6464 O.2       4 UNK        -0.5105 
     52 CA        -79.5647   25.4424  -77.7941 C.3       4 UNK         0.0263 
     53 CB        -79.5071   23.9413  -78.1343 C.3       4 UNK        -0.1981 
     54 N         -80.7033   25.7234  -76.9283 N.am      4 UNK        -0.4224 
     55 C         -81.9982   25.7274  -77.2543 C.2       3 UNK         0.4895 
     56 O         -82.4172   25.5467  -78.3990 O.2       3 UNK        -0.5091 
     57 CA        -82.9825   25.9353  -76.0804 C.3       3 UNK         0.0250 
     58 CB        -84.4566   25.8412  -76.5172 C.3       3 UNK        -0.1996 
     59 N         -82.7452   24.9753  -74.9930 N.am      3 UNK        -0.4254 
     60 C         -81.7288   25.0283  -74.1204 C.2       2 UNK         0.5004 
     61 O         -80.9159   25.9545  -74.0942 O.2       2 UNK        -0.5226 
     62 CA        -81.5172   23.8337  -73.1810 C.3       2 UNK         0.0269 
     63 CB        -82.5032   22.6637  -73.3845 C.3       2 UNK        -0.1926 
     64 N         -80.1494   23.3686  -73.3917 N.am      2 UNK        -0.4687 
     65 C         -79.3206   22.9050  -72.4508 C.2       1 UNK         0.5165 
     66 O         -79.6493   22.7374  -71.2753 O.2       1 UNK        -0.5079 
     67 H67       -78.7040   20.9953  -77.0349 H         1 UNK         0.0900 
     68 H68       -77.0296   20.5207  -76.7423 H         1 UNK         0.0900 
     69 H69       -77.4497   22.2282  -76.8738 H         1 UNK         0.0900 
     70 H70       -77.4012   23.2239  -74.8469 H         1 UNK         0.2959 
     71 H71       -77.6404   21.6200  -72.4242 H         1 UNK         0.1079 
     72 H72       -76.9139   23.6445  -71.2452 H         1 UNK         0.0837 
     73 H73       -75.8434   23.2391  -72.5422 H         1 UNK         0.0837 
     74 H74       -78.9367   25.8648  -71.7604 H         1 UNK         0.0685 
     75 H75       -77.5181   25.8139  -70.7393 H         1 UNK         0.0685 
     76 H76       -79.3171   27.8520  -73.2678 H         1 UNK         0.1434 
     77 H77       -77.3287   31.4898  -72.1562 H         1 UNK         0.1329 
     78 H78       -76.1235   27.7673  -70.4112 H         1 UNK         0.1335 
     79 H79       -75.5217   29.9501  -69.3604 H         1 UNK         0.0680 
     80 H80       -75.9094   31.4609  -70.1384 H         1 UNK         0.0680 
     81 H81       -74.3315   32.7203  -71.7736 H         1 UNK         0.1032 
     82 H82       -74.9724   31.6006  -72.9396 H         1 UNK         0.1032 
     83 H83       -73.1086   32.7620  -73.9411 H         1 UNK         0.0461 
     84 H84       -72.3614   34.4189  -72.3719 H         1 UNK         0.3453 
     85 H85       -70.8286   34.1671  -71.5801 H         1 UNK         0.3453 
     86 H86       -73.0825   29.9446  -73.7048 H         1 UNK         0.2984 
     87 H87       -72.2449   29.4094  -76.6315 H         1 UNK         0.0554 
     88 H88       -70.1769   27.9960  -76.6940 H         1 UNK         0.0847 
     89 H89       -69.5114   28.9232  -75.3481 H         1 UNK         0.0847 
     90 H90       -69.8294   29.7057  -76.8863 H         1 UNK         0.0847 
     91 H91       -73.1802   27.9347  -75.3217 H         1 UNK         0.3141 
     92 H92       -72.0423   25.7709  -72.7730 H         1 UNK         0.0743 
     93 H93       -74.4505   27.6666  -72.8344 H         1 UNK         0.0784 
     94 H94       -74.3242   26.1748  -71.9028 H         1 UNK         0.0784 
     95 H95       -73.2794   27.5313  -71.5270 H         1 UNK         0.0784 
     96 H96       -74.2402   26.0966  -74.7314 H         1 UNK         0.3213 
     97 H97       -72.8645   23.6548  -76.9408 H         1 UNK         0.0855 
     98 H98       -75.4158   23.6199  -75.2519 H         1 UNK         0.0814 
     99 H99       -74.2007   22.3484  -75.2607 H         1 UNK         0.0814 
    100 H100      -75.1172   22.6851  -76.7205 H         1 UNK         0.0814 
    101 H101      -75.2246   25.3101  -77.0117 H         1 UNK         0.3105 
    102 H102      -73.7508   28.2207  -78.2746 H         1 UNK         0.0547 
    103 H103      -73.5915   26.9129  -80.4024 H         1 UNK         0.0837 
    104 H104      -75.1619   26.1889  -80.0876 H         1 UNK         0.0837 
    105 H105      -75.0249   27.9238  -80.3812 H         1 UNK         0.0837 
    106 H106      -76.4576   27.4703  -78.3722 H         1 UNK         0.3020 
    107 H107      -77.3870   27.6019  -75.0383 H         1 UNK         0.1245 
    108 H108      -77.0517   30.0569  -75.2777 H         1 UNK         0.0781 
    109 H109      -77.5905   30.0057  -76.9353 H         1 UNK         0.0781 
    110 H110      -78.8814   31.5572  -73.9380 H         1 UNK         0.0836 
    111 H111      -80.2713   30.6699  -73.3612 H         1 UNK         0.0836 
    112 H112      -79.0591   27.8204  -77.2236 H         1 UNK         0.3022 
    113 H113      -79.6636   26.0111  -78.7209 H         1 UNK         0.0747 
    114 H114      -80.3369   23.6490  -78.7776 H         1 UNK         0.0793 
    115 H115      -78.5860   23.6891  -78.6612 H         1 UNK         0.0793 
    116 H116      -79.5587   23.3327  -77.2327 H         1 UNK         0.0793 
    117 H117      -80.4775   25.9090  -75.9524 H         1 UNK         0.3047 
    118 H118      -82.8136   26.9444  -75.6976 H         1 UNK         0.0822 
    119 H119      -85.1309   26.0379  -75.6834 H         1 UNK         0.0807 
    120 H120      -84.6971   24.8562  -76.9192 H         1 UNK         0.0807 
    121 H121      -84.6823   26.5745  -77.2927 H         1 UNK         0.0807 
    122 H122      -83.3438   24.1621  -74.9774 H         1 UNK         0.2946 
    123 H123      -81.6250   24.2154  -72.1630 H         1 UNK         0.1144 
    124 H124      -83.5343   22.9777  -73.2170 H         1 UNK         0.0793 
    125 H125      -82.3010   21.8590  -72.6772 H         1 UNK         0.0793 
    126 H126      -82.4349   22.2401  -74.3875 H         1 UNK         0.0793 
    127 H127      -79.7683   23.5229  -74.3143 H         1 UNK         0.2896 
@<TRIPOS>BOND
     1    1    2 1    
     2    1   67 1    
     3    1   68 1    
     4    1   69 1    
     5    2    3 2    
     6    2    4 am   BACKBONE|DICT|INTERRES
     7    4    5 1    
     8    4   70 1    
     9    5    6 1    
    10    5   65 1    
    11    5   71 1    
    12    6    7 1    
    13    6   72 1    
    14    6   73 1    
    15    7    8 1    
    16    8    9 1    
    17    8   74 1    
    18    8   75 1    
    19    9   10 ar   
    20    9   14 ar   
    21   10   11 ar   
    22   10   76 1    
    23   11   12 ar   
    24   11   48 1    
    25   12   13 ar   
    26   12   77 1    
    27   13   14 ar   
    28   13   15 1    
    29   14   78 1    
    30   15   16 1    
    31   15   79 1    
    32   15   80 1    
    33   16   17 1    
    34   17   18 1    
    35   17   81 1    
    36   17   82 1    
    37   18   19 1    
    38   18   22 1    
    39   18   83 1    
    40   19   20 am   BACKBONE|DICT|INTERRES
    41   19   21 2    
    42   20   84 1    
    43   20   85 1    
    44   22   23 am   BACKBONE|DICT|INTERRES
    45   22   86 1    
    46   23   24 2    
    47   23   25 1    
    48   25   26 1    
    49   25   27 1    
    50   25   87 1    
    51   26   88 1    
    52   26   89 1    
    53   26   90 1    
    54   27   28 am   BACKBONE|DICT|INTERRES
    55   27   91 1    
    56   28   29 2    
    57   28   30 1    
    58   30   31 1    
    59   30   32 1    
    60   30   92 1    
    61   31   93 1    
    62   31   94 1    
    63   31   95 1    
    64   32   33 am   BACKBONE|DICT|INTERRES
    65   32   96 1    
    66   33   34 2    
    67   33   35 1    
    68   35   36 1    
    69   35   37 1    
    70   35   97 1    
    71   36   98 1    
    72   36   99 1    
    73   36  100 1    
    74   37   38 am   BACKBONE|DICT|INTERRES
    75   37  101 1    
    76   38   39 2    
    77   38   40 1    
    78   40   41 1    
    79   40   42 1    
    80   40  102 1    
    81   41  103 1    
    82   41  104 1    
    83   41  105 1    
    84   42   43 am   BACKBONE|DICT|INTERRES
    85   42  106 1    
    86   43   44 2    
    87   43   45 1    
    88   45   46 1    
    89   45   49 1    
    90   45  107 1    
    91   46   47 1    
    92   46  108 1    
    93   46  109 1    
    94   47   48 1    
    95   48  110 1    
    96   48  111 1    
    97   49   50 am   BACKBONE|DICT|INTERRES
    98   49  112 1    
    99   50   51 2    
   100   50   52 1    
   101   52   53 1    
   102   52   54 1    
   103   52  113 1    
   104   53  114 1    
   105   53  115 1    
   106   53  116 1    
   107   54   55 am   BACKBONE|DICT|INTERRES
   108   54  117 1    
   109   55   56 2    
   110   55   57 1    
   111   57   58 1    
   112   57   59 1    
   113   57  118 1    
   114   58  119 1    
   115   58  120 1    
   116   58  121 1    
   117   59   60 am   BACKBONE|DICT|INTERRES
   118   59  122 1    
   119   60   61 2    
   120   60   62 1    
   121   62   63 1    
   122   62   64 1    
   123   62  123 1    
   124   63  124 1    
   125   63  125 1    
   126   63  126 1    
   127   64   65 am   BACKBONE|DICT|INTERRES
   128   64  127 1    
   129   65   66 2    
@<TRIPOS>SUBSTRUCTURE
     1 UNK         1 GROUP             0       ****    0 ROOT    
