@<TRIPOS>MOLECULE
3R135
127   129    1
SMALL
USER_CHARGES


@<TRIPOS>ATOM
      1 CA        -84.6714   27.0196  -74.7720 C.3       0 UNK        -0.1998 
      2 C         -83.5857   28.0639  -74.5587 C.2       0 UNK         0.4909 
      3 O         -83.8337   29.2551  -74.7480 O.2       0 UNK        -0.5240 
      4 N         -82.3851   27.6268  -74.1690 N.am      1 UNK        -0.4739 
      5 CA        -81.2060   28.4599  -73.9489 C.3       1 UNK         0.0864 
      6 C6        -81.2042   29.0824  -72.5287 C.3       11 UNK        -0.0881 
      7 S7        -79.9409   30.3834  -72.2961 S.3       11 UNK        -0.2682 
      8 C8        -79.1085   29.8440  -70.7665 C.3       11 UNK         0.0289 
      9 C9        -78.0162   28.8141  -71.0252 C.ar      11 UNK        -0.0687 
     10 C10       -78.3209   27.4503  -71.0607 C.ar      11 UNK        -0.0823 
     11 C11       -77.3241   26.4945  -71.2792 C.ar      11 UNK        -0.0830 
     12 C12       -75.9994   26.9261  -71.4224 C.ar      11 UNK        -0.1021 
     13 C13       -75.6741   28.2854  -71.3998 C.ar      11 UNK        -0.0753 
     14 C14       -76.6926   29.2258  -71.2087 C.ar      11 UNK        -0.0933 
     15 C15       -74.2222   28.6900  -71.6430 C.3       11 UNK         0.0166 
     16 S16       -73.6234   30.0992  -70.6470 S.3       11 UNK        -0.2615 
     17 C17       -73.9813   31.6377  -71.5830 C.3       11 UNK        -0.0865 
     18 CA        -74.2301   31.5539  -73.1227 C.3       10 UNK         0.0862 
     19 C         -74.6005   32.9413  -73.7264 C.2       10 UNK         0.5551 
     20 N         -75.6735   33.5580  -73.2488 N.am      10 UNK        -0.7319 
     21 O         -73.9476   33.4648  -74.6278 O.2       10 UNK        -0.5018 
     22 N         -73.1659   30.8732  -73.8815 N.am      10 UNK        -0.4509 
     23 C         -71.8511   31.1184  -73.8800 C.2       10 UNK         0.4899 
     24 O         -71.3075   31.9537  -73.1555 O.2       10 UNK        -0.4839 
     25 CA        -70.9954   30.2796  -74.8604 C.3       9 UNK         0.0222 
     26 CB        -69.4859   30.4040  -74.5772 C.3       9 UNK        -0.1966 
     27 N         -71.3510   28.8521  -74.9046 N.am      9 UNK        -0.4218 
     28 C         -72.4247   28.3301  -75.5132 C.2       9 UNK         0.5020 
     29 O         -73.2854   29.0204  -76.0639 O.2       9 UNK        -0.5274 
     30 CA        -72.5801   26.7969  -75.4465 C.3       8 UNK         0.0270 
     31 CB        -72.9971   26.3419  -74.0390 C.3       8 UNK        -0.1976 
     32 N         -73.5661   26.2863  -76.4017 N.am      8 UNK        -0.4313 
     33 C         -73.4184   26.2740  -77.7318 C.2       8 UNK         0.5041 
     34 O         -72.3903   26.6219  -78.3176 O.2       8 UNK        -0.5577 
     35 CA        -74.6369   25.7647  -78.5205 C.3       7 UNK         0.0284 
     36 CB        -74.4436   25.8020  -80.0521 C.3       7 UNK        -0.1958 
     37 N         -75.0612   24.4364  -78.0606 N.am      7 UNK        -0.4454 
     38 C         -74.3894   23.2802  -78.1651 C.2       7 UNK         0.5089 
     39 O         -73.2862   23.1641  -78.7014 O.2       7 UNK        -0.5125 
     40 CA        -75.0970   22.0387  -77.5872 C.3       6 UNK         0.0408 
     41 CB        -74.1807   20.7985  -77.5071 C.3       6 UNK        -0.1791 
     42 N         -75.7586   22.2914  -76.3013 N.am      6 UNK        -0.4762 
     43 C         -75.1816   22.6199  -75.1320 C.2       6 UNK         0.5007 
     44 O         -73.9674   22.7742  -74.9988 O.2       6 UNK        -0.5032 
     45 CA        -76.1127   22.7934  -73.9076 C.3       5 UNK         0.0783 
     46 C46       -75.6016   23.8744  -72.9217 C.3       11 UNK        -0.0857 
     47 S47       -76.4189   23.7764  -71.2902 S.3       11 UNK        -0.2512 
     48 C48       -77.7469   25.0280  -71.4079 C.3       11 UNK         0.0225 
     49 N         -77.4729   23.1000  -74.3515 N.am      5 UNK        -0.4615 
     50 C         -78.5113   22.2568  -74.3667 C.2       4 UNK         0.5053 
     51 O         -78.4632   21.1021  -73.9445 O.2       4 UNK        -0.5105 
     52 CA        -79.8221   22.7823  -74.9836 C.3       4 UNK         0.0263 
     53 CB        -80.8428   23.1070  -73.8808 C.3       4 UNK        -0.1981 
     54 N         -79.6272   23.9658  -75.8308 N.am      4 UNK        -0.4224 
     55 C         -79.0287   23.9466  -77.0336 C.2       3 UNK         0.4895 
     56 O         -78.6181   22.9191  -77.5725 O.2       3 UNK        -0.5091 
     57 CA        -78.7831   25.3005  -77.7264 C.3       3 UNK         0.0250 
     58 CB        -79.9729   25.6648  -78.6276 C.3       3 UNK        -0.1996 
     59 N         -78.5334   26.3965  -76.7867 N.am      3 UNK        -0.4254 
     60 C         -77.5291   26.4470  -75.9005 C.2       2 UNK         0.5004 
     61 O         -76.6174   25.6195  -75.8544 O.2       2 UNK        -0.5226 
     62 CA        -77.5647   27.5735  -74.8561 C.3       2 UNK         0.0269 
     63 CB        -76.5323   28.6546  -75.1874 C.3       2 UNK        -0.1926 
     64 N         -78.8734   28.2038  -74.6515 N.am      2 UNK        -0.4687 
     65 C         -79.9759   27.5786  -74.2182 C.2       1 UNK         0.5165 
     66 O         -80.0466   26.3577  -74.0449 O.2       1 UNK        -0.5079 
     67 H67       -85.5158   27.2164  -74.1120 H         1 UNK         0.0900 
     68 H68       -85.0276   27.0533  -75.8012 H         1 UNK         0.0900 
     69 H69       -84.3116   26.0107  -74.5705 H         1 UNK         0.0900 
     70 H70       -82.2033   26.6361  -74.0595 H         1 UNK         0.2959 
     71 H71       -81.2101   29.2618  -74.6911 H         1 UNK         0.1079 
     72 H72       -81.1087   28.3069  -71.7685 H         1 UNK         0.0837 
     73 H73       -82.1698   29.5536  -72.3383 H         1 UNK         0.0837 
     74 H74       -79.8422   29.4523  -70.0604 H         1 UNK         0.0685 
     75 H75       -78.6745   30.7218  -70.2852 H         1 UNK         0.0685 
     76 H76       -79.3444   27.1274  -70.9339 H         1 UNK         0.1434 
     77 H77       -75.2066   26.2108  -71.5783 H         1 UNK         0.1329 
     78 H78       -76.4604   30.2799  -71.1957 H         1 UNK         0.1335 
     79 H79       -74.0774   28.8476  -72.7068 H         1 UNK         0.0680 
     80 H80       -73.5740   27.8510  -71.3863 H         1 UNK         0.0680 
     81 H81       -74.8469   32.0874  -71.0951 H         1 UNK         0.1032 
     82 H82       -73.1635   32.3309  -71.3809 H         1 UNK         0.1032 
     83 H83       -75.1148   30.9379  -73.2774 H         1 UNK         0.0461 
     84 H84       -75.9288   34.4544  -73.6331 H         1 UNK         0.3453 
     85 H85       -76.2446   33.1451  -72.5289 H         1 UNK         0.3453 
     86 H86       -73.4885   30.2197  -74.5893 H         1 UNK         0.2984 
     87 H87       -71.1727   30.6979  -75.8534 H         1 UNK         0.0554 
     88 H88       -69.1611   31.4444  -74.6245 H         1 UNK         0.0847 
     89 H89       -68.8958   29.8537  -75.3103 H         1 UNK         0.0847 
     90 H90       -69.2295   30.0273  -73.5862 H         1 UNK         0.0847 
     91 H91       -70.7149   28.2236  -74.4346 H         1 UNK         0.3141 
     92 H92       -71.6126   26.3514  -75.6871 H         1 UNK         0.0743 
     93 H93       -74.0014   26.6837  -73.7895 H         1 UNK         0.0784 
     94 H94       -72.9878   25.2545  -73.9640 H         1 UNK         0.0784 
     95 H95       -72.3163   26.7191  -73.2753 H         1 UNK         0.0784 
     96 H96       -74.4575   25.9863  -76.0254 H         1 UNK         0.3213 
     97 H97       -75.4554   26.4473  -78.2866 H         1 UNK         0.0855 
     98 H98       -73.6050   25.1849  -80.3753 H         1 UNK         0.0814 
     99 H99       -74.2429   26.8190  -80.3910 H         1 UNK         0.0814 
    100 H100      -75.3363   25.4566  -80.5733 H         1 UNK         0.0814 
    101 H101      -75.9054   24.4281  -77.5012 H         1 UNK         0.3105 
    102 H102      -75.8976   21.8017  -78.2895 H         1 UNK         0.0547 
    103 H103      -74.7158   19.9331  -77.1165 H         1 UNK         0.0837 
    104 H104      -73.3133   20.9736  -76.8700 H         1 UNK         0.0837 
    105 H105      -73.8056   20.5266  -78.4944 H         1 UNK         0.0837 
    106 H106      -76.7682   22.2169  -76.3200 H         1 UNK         0.3020 
    107 H107      -76.0967   21.8306  -73.3917 H         1 UNK         0.1245 
    108 H108      -75.7248   24.8681  -73.3534 H         1 UNK         0.0781 
    109 H109      -74.5343   23.7561  -72.7279 H         1 UNK         0.0781 
    110 H110      -78.4713   24.8041  -70.6234 H         1 UNK         0.0836 
    111 H111      -78.2760   24.8997  -72.3525 H         1 UNK         0.0836 
    112 H112      -77.5875   24.0171  -74.7632 H         1 UNK         0.3022 
    113 H113      -80.2341   21.9843  -75.6050 H         1 UNK         0.0747 
    114 H114      -81.7844   23.4607  -74.3010 H         1 UNK         0.0793 
    115 H115      -81.0667   22.2210  -73.2853 H         1 UNK         0.0793 
    116 H116      -80.4717   23.8706  -73.1968 H         1 UNK         0.0793 
    117 H117      -79.8907   24.8573  -75.4224 H         1 UNK         0.3047 
    118 H118      -77.8987   25.1940  -78.3572 H         1 UNK         0.0822 
    119 H119      -79.7795   26.5778  -79.1911 H         1 UNK         0.0807 
    120 H120      -80.8877   25.8119  -78.0517 H         1 UNK         0.0807 
    121 H121      -80.1685   24.8742  -79.3537 H         1 UNK         0.0807 
    122 H122      -79.2247   27.1313  -76.7522 H         1 UNK         0.2946 
    123 H123      -77.2783   27.1154  -73.9108 H         1 UNK         0.1144 
    124 H124      -76.5027   29.4218  -74.4148 H         1 UNK         0.0793 
    125 H125      -76.7374   29.1395  -76.1424 H         1 UNK         0.0793 
    126 H126      -75.5375   28.2178  -75.2450 H         1 UNK         0.0793 
    127 H127      -78.9024   29.2090  -74.7493 H         1 UNK         0.2896 
@<TRIPOS>BOND
     1    1    2 1    
     2    1   67 1    
     3    1   68 1    
     4    1   69 1    
     5    2    3 2    
     6    2    4 am   BACKBONE|DICT|INTERRES
     7    4    5 1    
     8    4   70 1    
     9    5    6 1    
    10    5   65 1    
    11    5   71 1    
    12    6    7 1    
    13    6   72 1    
    14    6   73 1    
    15    7    8 1    
    16    8    9 1    
    17    8   74 1    
    18    8   75 1    
    19    9   10 ar   
    20    9   14 ar   
    21   10   11 ar   
    22   10   76 1    
    23   11   12 ar   
    24   11   48 1    
    25   12   13 ar   
    26   12   77 1    
    27   13   14 ar   
    28   13   15 1    
    29   14   78 1    
    30   15   16 1    
    31   15   79 1    
    32   15   80 1    
    33   16   17 1    
    34   17   18 1    
    35   17   81 1    
    36   17   82 1    
    37   18   19 1    
    38   18   22 1    
    39   18   83 1    
    40   19   20 am   BACKBONE|DICT|INTERRES
    41   19   21 2    
    42   20   84 1    
    43   20   85 1    
    44   22   23 am   BACKBONE|DICT|INTERRES
    45   22   86 1    
    46   23   24 2    
    47   23   25 1    
    48   25   26 1    
    49   25   27 1    
    50   25   87 1    
    51   26   88 1    
    52   26   89 1    
    53   26   90 1    
    54   27   28 am   BACKBONE|DICT|INTERRES
    55   27   91 1    
    56   28   29 2    
    57   28   30 1    
    58   30   31 1    
    59   30   32 1    
    60   30   92 1    
    61   31   93 1    
    62   31   94 1    
    63   31   95 1    
    64   32   33 am   BACKBONE|DICT|INTERRES
    65   32   96 1    
    66   33   34 2    
    67   33   35 1    
    68   35   36 1    
    69   35   37 1    
    70   35   97 1    
    71   36   98 1    
    72   36   99 1    
    73   36  100 1    
    74   37   38 am   BACKBONE|DICT|INTERRES
    75   37  101 1    
    76   38   39 2    
    77   38   40 1    
    78   40   41 1    
    79   40   42 1    
    80   40  102 1    
    81   41  103 1    
    82   41  104 1    
    83   41  105 1    
    84   42   43 am   BACKBONE|DICT|INTERRES
    85   42  106 1    
    86   43   44 2    
    87   43   45 1    
    88   45   46 1    
    89   45   49 1    
    90   45  107 1    
    91   46   47 1    
    92   46  108 1    
    93   46  109 1    
    94   47   48 1    
    95   48  110 1    
    96   48  111 1    
    97   49   50 am   BACKBONE|DICT|INTERRES
    98   49  112 1    
    99   50   51 2    
   100   50   52 1    
   101   52   53 1    
   102   52   54 1    
   103   52  113 1    
   104   53  114 1    
   105   53  115 1    
   106   53  116 1    
   107   54   55 am   BACKBONE|DICT|INTERRES
   108   54  117 1    
   109   55   56 2    
   110   55   57 1    
   111   57   58 1    
   112   57   59 1    
   113   57  118 1    
   114   58  119 1    
   115   58  120 1    
   116   58  121 1    
   117   59   60 am   BACKBONE|DICT|INTERRES
   118   59  122 1    
   119   60   61 2    
   120   60   62 1    
   121   62   63 1    
   122   62   64 1    
   123   62  123 1    
   124   63  124 1    
   125   63  125 1    
   126   63  126 1    
   127   64   65 am   BACKBONE|DICT|INTERRES
   128   64  127 1    
   129   65   66 2    
@<TRIPOS>SUBSTRUCTURE
     1 UNK         1 GROUP             0       ****    0 ROOT    
