@<TRIPOS>MOLECULE
3R135
127   129    1
SMALL
USER_CHARGES


@<TRIPOS>ATOM
      1 CA        -85.0091   29.0906  -70.0731 C.3       0 UNK        -0.1998 
      2 C         -84.4081   28.6763  -71.4078 C.2       0 UNK         0.4909 
      3 O         -85.1453   28.4549  -72.3689 O.2       0 UNK        -0.5240 
      4 N         -83.0742   28.5725  -71.4745 N.am      1 UNK        -0.4739 
      5 CA        -82.3202   28.1821  -72.6752 C.3       1 UNK         0.0864 
      6 C6        -80.8147   28.5155  -72.5426 C.3       11 UNK        -0.0881 
      7 S7        -80.5101   30.2958  -72.2623 S.3       11 UNK        -0.2682 
      8 C8        -80.2925   30.9298  -73.9578 C.3       11 UNK         0.0289 
      9 C9        -79.0354   30.3797  -74.6144 C.ar      11 UNK        -0.0687 
     10 C10       -79.1292   29.3684  -75.5745 C.ar      11 UNK        -0.0823 
     11 C11       -77.9759   28.8127  -76.1339 C.ar      11 UNK        -0.0830 
     12 C12       -76.7234   29.3106  -75.7651 C.ar      11 UNK        -0.1021 
     13 C13       -76.6159   30.3180  -74.8019 C.ar      11 UNK        -0.0753 
     14 C14       -77.7763   30.8570  -74.2381 C.ar      11 UNK        -0.0933 
     15 C15       -75.2477   30.7963  -74.3371 C.3       11 UNK         0.0166 
     16 S16       -74.7916   30.0434  -72.7404 S.3       11 UNK        -0.2615 
     17 C17       -74.4649   28.3129  -73.2325 C.3       11 UNK        -0.0865 
     18 CA        -72.9992   27.8542  -72.9982 C.3       10 UNK         0.0862 
     19 C         -72.7599   26.3942  -73.4839 C.2       10 UNK         0.5551 
     20 N         -71.5868   26.0457  -74.0006 N.am      10 UNK        -0.7319 
     21 O         -73.6583   25.5600  -73.4040 O.2       10 UNK        -0.5018 
     22 N         -72.0234   28.7992  -73.5639 N.am      10 UNK        -0.4509 
     23 C         -71.0036   29.3439  -72.8898 C.2       10 UNK         0.4899 
     24 O         -70.7881   29.1429  -71.6930 O.2       10 UNK        -0.4839 
     25 CA        -70.0626   30.2701  -73.6885 C.3       9 UNK         0.0222 
     26 CB        -68.7162   30.5078  -72.9718 C.3       9 UNK        -0.1966 
     27 N         -69.8263   29.8391  -75.0723 N.am      9 UNK        -0.4218 
     28 C         -69.3530   28.6598  -75.4985 C.2       9 UNK         0.5020 
     29 O         -69.1269   27.6998  -74.7587 O.2       9 UNK        -0.5274 
     30 CA        -69.1255   28.5363  -77.0188 C.3       8 UNK         0.0270 
     31 CB        -68.3844   27.2409  -77.4004 C.3       8 UNK        -0.1976 
     32 N         -70.3842   28.5934  -77.7629 N.am      8 UNK        -0.4313 
     33 C         -71.1483   29.6786  -77.9487 C.2       8 UNK         0.5041 
     34 O         -70.8325   30.8054  -77.5619 O.2       8 UNK        -0.5577 
     35 CA        -72.4991   29.4745  -78.6613 C.3       7 UNK         0.0284 
     36 CB        -72.4130   29.9482  -80.1212 C.3       7 UNK        -0.1958 
     37 N         -72.9827   28.0881  -78.6296 N.am      7 UNK        -0.4454 
     38 C         -73.3639   27.4427  -77.5200 C.2       7 UNK         0.5089 
     39 O         -73.3577   27.9485  -76.3961 O.2       7 UNK        -0.5125 
     40 CA        -73.7738   25.9776  -77.6962 C.3       6 UNK         0.0408 
     41 CB        -72.5351   25.0663  -77.7391 C.3       6 UNK        -0.1791 
     42 N         -74.6295   25.5790  -76.5823 N.am      6 UNK        -0.4762 
     43 C         -75.6788   24.7559  -76.6766 C.2       6 UNK         0.5007 
     44 O         -76.0163   24.2030  -77.7279 O.2       6 UNK        -0.5032 
     45 CA        -76.5059   24.5494  -75.3878 C.3       5 UNK         0.0783 
     46 C46       -77.3718   25.7888  -75.0471 C.3       11 UNK        -0.0857 
     47 S47       -78.7042   26.1417  -76.2540 S.3       11 UNK        -0.2512 
     48 C48       -78.0848   27.6383  -77.0950 C.3       11 UNK         0.0225 
     49 N         -77.3226   23.3362  -75.4534 N.am      5 UNK        -0.4615 
     50 C         -76.8535   22.0862  -75.4079 C.2       4 UNK         0.5053 
     51 O         -75.6714   21.8070  -75.1984 O.2       4 UNK        -0.5105 
     52 CA        -77.8927   20.9666  -75.6007 C.3       4 UNK         0.0263 
     53 CB        -77.2419   19.5864  -75.8129 C.3       4 UNK        -0.1981 
     54 N         -78.8097   20.8874  -74.4620 N.am      4 UNK        -0.4224 
     55 C         -79.8574   21.6942  -74.2475 C.2       3 UNK         0.4895 
     56 O         -80.1820   22.6021  -75.0169 O.2       3 UNK        -0.5091 
     57 CA        -80.6985   21.3888  -72.9917 C.3       3 UNK         0.0250 
     58 CB        -79.8335   21.1787  -71.7271 C.3       3 UNK        -0.1996 
     59 N         -81.7635   22.3727  -72.7498 N.am      3 UNK        -0.4254 
     60 C         -81.6384   23.6492  -72.3553 C.2       2 UNK         0.5004 
     61 O         -80.5657   24.2018  -72.0957 O.2       2 UNK        -0.5226 
     62 CA        -82.9656   24.4076  -72.1619 C.3       2 UNK         0.0269 
     63 CB        -83.7027   23.9033  -70.9078 C.3       2 UNK        -0.1926 
     64 N         -82.7734   25.8524  -72.0292 N.am      2 UNK        -0.4687 
     65 C         -82.5119   26.6931  -73.0395 C.2       1 UNK         0.5165 
     66 O         -82.4435   26.3435  -74.2187 O.2       1 UNK        -0.5079 
     67 H67       -85.6806   28.3143  -69.7071 H         1 UNK         0.0900 
     68 H68       -85.5819   30.0103  -70.1893 H         1 UNK         0.0900 
     69 H69       -84.2436   29.2615  -69.3164 H         1 UNK         0.0900 
     70 H70       -82.5154   28.7961  -70.6628 H         1 UNK         0.2959 
     71 H71       -82.7179   28.7571  -73.5146 H         1 UNK         0.1079 
     72 H72       -80.2649   28.1820  -73.4230 H         1 UNK         0.0837 
     73 H73       -80.3795   27.9667  -71.7051 H         1 UNK         0.0837 
     74 H74       -80.2334   32.0186  -73.9221 H         1 UNK         0.0685 
     75 H75       -81.1777   30.6913  -74.5495 H         1 UNK         0.0685 
     76 H76       -80.0983   28.9779  -75.8547 H         1 UNK         0.1434 
     77 H77       -75.8291   28.8856  -76.1985 H         1 UNK         0.1329 
     78 H78       -77.6985   31.6251  -73.4805 H         1 UNK         0.1335 
     79 H79       -75.2589   31.8816  -74.2270 H         1 UNK         0.0680 
     80 H80       -74.4811   30.5701  -75.0806 H         1 UNK         0.0680 
     81 H81       -75.1505   27.6783  -72.6681 H         1 UNK         0.1032 
     82 H82       -74.7337   28.1726  -74.2764 H         1 UNK         0.1032 
     83 H83       -72.8668   27.8068  -71.9164 H         1 UNK         0.0461 
     84 H84       -71.4471   25.0944  -74.2985 H         1 UNK         0.3453 
     85 H85       -70.8322   26.7165  -74.0875 H         1 UNK         0.3453 
     86 H86       -72.1160   28.9717  -74.5559 H         1 UNK         0.2984 
     87 H87       -70.5748   31.2309  -73.7549 H         1 UNK         0.0554 
     88 H88       -68.8668   30.9493  -71.9859 H         1 UNK         0.0847 
     89 H89       -68.0810   31.1913  -73.5352 H         1 UNK         0.0847 
     90 H90       -68.1655   29.5768  -72.8315 H         1 UNK         0.0847 
     91 H91       -70.0709   30.5102  -75.7980 H         1 UNK         0.3141 
     92 H92       -68.5027   29.3797  -77.3251 H         1 UNK         0.0743 
     93 H93       -67.4282   27.1711  -76.8798 H         1 UNK         0.0784 
     94 H94       -68.9617   26.3521  -77.1416 H         1 UNK         0.0784 
     95 H95       -68.1721   27.2046  -78.4691 H         1 UNK         0.0784 
     96 H96       -70.7407   27.7131  -78.1023 H         1 UNK         0.3213 
     97 H97       -73.2321   30.0959  -78.1418 H         1 UNK         0.0855 
     98 H98       -71.7054   29.3526  -80.6993 H         1 UNK         0.0814 
     99 H99       -72.0838   30.9871  -80.1752 H         1 UNK         0.0814 
    100 H100      -73.3833   29.8933  -80.6152 H         1 UNK         0.0814 
    101 H101      -73.0195   27.6009  -79.5142 H         1 UNK         0.3105 
    102 H102      -74.3212   25.8925  -78.6375 H         1 UNK         0.0547 
    103 H103      -71.9392   25.1539  -76.8298 H         1 UNK         0.0837 
    104 H104      -72.8186   24.0197  -77.8517 H         1 UNK         0.0837 
    105 H105      -71.8881   25.3158  -78.5806 H         1 UNK         0.0837 
    106 H106      -74.4126   26.0308  -75.7022 H         1 UNK         0.3020 
    107 H107      -75.7914   24.4076  -74.5733 H         1 UNK         0.1245 
    108 H108      -76.7389   26.6657  -74.9135 H         1 UNK         0.0781 
    109 H109      -77.8486   25.6364  -74.0773 H         1 UNK         0.0781 
    110 H110      -78.7667   27.8984  -77.9058 H         1 UNK         0.0836 
    111 H111      -77.1225   27.4195  -77.5607 H         1 UNK         0.0836 
    112 H112      -78.3166   23.4730  -75.5999 H         1 UNK         0.3022 
    113 H113      -78.4642   21.2030  -76.5013 H         1 UNK         0.0747 
    114 H114      -76.5596   19.6044  -76.6639 H         1 UNK         0.0793 
    115 H115      -77.9916   18.8218  -76.0176 H         1 UNK         0.0793 
    116 H116      -76.6679   19.2691  -74.9413 H         1 UNK         0.0793 
    117 H117      -78.6016   20.1785  -73.7738 H         1 UNK         0.3047 
    118 H118      -81.2135   20.4490  -73.1969 H         1 UNK         0.0822 
    119 H119      -79.2164   20.2835  -71.8072 H         1 UNK         0.0807 
    120 H120      -80.4541   21.0541  -70.8395 H         1 UNK         0.0807 
    121 H121      -79.1629   22.0201  -71.5482 H         1 UNK         0.0807 
    122 H122      -82.6958   22.0375  -72.9489 H         1 UNK         0.2946 
    123 H123      -83.5918   24.2234  -73.0383 H         1 UNK         0.1144 
    124 H124      -83.9276   22.8385  -70.9794 H         1 UNK         0.0793 
    125 H125      -84.6524   24.4212  -70.7709 H         1 UNK         0.0793 
    126 H126      -83.1077   24.0494  -70.0052 H         1 UNK         0.0793 
    127 H127      -82.7879   26.2284  -71.0928 H         1 UNK         0.2896 
@<TRIPOS>BOND
     1    1    2 1    
     2    1   67 1    
     3    1   68 1    
     4    1   69 1    
     5    2    3 2    
     6    2    4 am   BACKBONE|DICT|INTERRES
     7    4    5 1    
     8    4   70 1    
     9    5    6 1    
    10    5   65 1    
    11    5   71 1    
    12    6    7 1    
    13    6   72 1    
    14    6   73 1    
    15    7    8 1    
    16    8    9 1    
    17    8   74 1    
    18    8   75 1    
    19    9   10 ar   
    20    9   14 ar   
    21   10   11 ar   
    22   10   76 1    
    23   11   12 ar   
    24   11   48 1    
    25   12   13 ar   
    26   12   77 1    
    27   13   14 ar   
    28   13   15 1    
    29   14   78 1    
    30   15   16 1    
    31   15   79 1    
    32   15   80 1    
    33   16   17 1    
    34   17   18 1    
    35   17   81 1    
    36   17   82 1    
    37   18   19 1    
    38   18   22 1    
    39   18   83 1    
    40   19   20 am   BACKBONE|DICT|INTERRES
    41   19   21 2    
    42   20   84 1    
    43   20   85 1    
    44   22   23 am   BACKBONE|DICT|INTERRES
    45   22   86 1    
    46   23   24 2    
    47   23   25 1    
    48   25   26 1    
    49   25   27 1    
    50   25   87 1    
    51   26   88 1    
    52   26   89 1    
    53   26   90 1    
    54   27   28 am   BACKBONE|DICT|INTERRES
    55   27   91 1    
    56   28   29 2    
    57   28   30 1    
    58   30   31 1    
    59   30   32 1    
    60   30   92 1    
    61   31   93 1    
    62   31   94 1    
    63   31   95 1    
    64   32   33 am   BACKBONE|DICT|INTERRES
    65   32   96 1    
    66   33   34 2    
    67   33   35 1    
    68   35   36 1    
    69   35   37 1    
    70   35   97 1    
    71   36   98 1    
    72   36   99 1    
    73   36  100 1    
    74   37   38 am   BACKBONE|DICT|INTERRES
    75   37  101 1    
    76   38   39 2    
    77   38   40 1    
    78   40   41 1    
    79   40   42 1    
    80   40  102 1    
    81   41  103 1    
    82   41  104 1    
    83   41  105 1    
    84   42   43 am   BACKBONE|DICT|INTERRES
    85   42  106 1    
    86   43   44 2    
    87   43   45 1    
    88   45   46 1    
    89   45   49 1    
    90   45  107 1    
    91   46   47 1    
    92   46  108 1    
    93   46  109 1    
    94   47   48 1    
    95   48  110 1    
    96   48  111 1    
    97   49   50 am   BACKBONE|DICT|INTERRES
    98   49  112 1    
    99   50   51 2    
   100   50   52 1    
   101   52   53 1    
   102   52   54 1    
   103   52  113 1    
   104   53  114 1    
   105   53  115 1    
   106   53  116 1    
   107   54   55 am   BACKBONE|DICT|INTERRES
   108   54  117 1    
   109   55   56 2    
   110   55   57 1    
   111   57   58 1    
   112   57   59 1    
   113   57  118 1    
   114   58  119 1    
   115   58  120 1    
   116   58  121 1    
   117   59   60 am   BACKBONE|DICT|INTERRES
   118   59  122 1    
   119   60   61 2    
   120   60   62 1    
   121   62   63 1    
   122   62   64 1    
   123   62  123 1    
   124   63  124 1    
   125   63  125 1    
   126   63  126 1    
   127   64   65 am   BACKBONE|DICT|INTERRES
   128   64  127 1    
   129   65   66 2    
@<TRIPOS>SUBSTRUCTURE
     1 UNK         1 GROUP             0       ****    0 ROOT    
