@<TRIPOS>MOLECULE
3R135
127   129    1
SMALL
USER_CHARGES


@<TRIPOS>ATOM
      1 CA        -83.4576   27.1795  -78.7426 C.3       0 UNK        -0.1998 
      2 C         -82.5074   27.1548  -77.5553 C.2       0 UNK         0.4909 
      3 O         -81.7268   26.2099  -77.4147 O.2       0 UNK        -0.5240 
      4 N         -82.5630   28.1861  -76.6981 N.am      1 UNK        -0.4739 
      5 CA        -81.7490   28.2963  -75.4832 C.3       1 UNK         0.0864 
      6 C6        -81.8213   29.7069  -74.8426 C.3       11 UNK        -0.0881 
      7 S7        -80.2107   30.1964  -74.1417 S.3       11 UNK        -0.2682 
      8 C8        -80.4560   29.8852  -72.3676 C.3       11 UNK         0.0289 
      9 C9        -79.1695   29.4038  -71.7127 C.ar      11 UNK        -0.0687 
     10 C10       -79.0269   28.0613  -71.3535 C.ar      11 UNK        -0.0823 
     11 C11       -77.8616   27.6094  -70.7268 C.ar      11 UNK        -0.0830 
     12 C12       -76.8295   28.5136  -70.4618 C.ar      11 UNK        -0.1021 
     13 C13       -76.9549   29.8582  -70.8254 C.ar      11 UNK        -0.0753 
     14 C14       -78.1278   30.2980  -71.4486 C.ar      11 UNK        -0.0933 
     15 C15       -75.8346   30.8432  -70.5272 C.3       11 UNK         0.0166 
     16 S16       -74.6020   30.8840  -71.8643 S.3       11 UNK        -0.2615 
     17 C17       -73.6288   29.3814  -71.5026 C.3       11 UNK        -0.0865 
     18 CA        -72.2610   29.3776  -72.2359 C.3       10 UNK         0.0862 
     19 C         -71.3325   28.2244  -71.7520 C.2       10 UNK         0.5551 
     20 N         -70.5983   27.5434  -72.6252 N.am      10 UNK        -0.7319 
     21 O         -71.2590   27.9501  -70.5566 O.2       10 UNK        -0.5018 
     22 N         -72.4457   29.3797  -73.6935 N.am      10 UNK        -0.4509 
     23 C         -71.8121   30.1781  -74.5582 C.2       10 UNK         0.4899 
     24 O         -71.0254   31.0669  -74.2261 O.2       10 UNK        -0.4839 
     25 CA        -72.1030   29.9206  -76.0499 C.3       9 UNK         0.0222 
     26 CB        -71.1331   30.6661  -76.9912 C.3       9 UNK        -0.1966 
     27 N         -72.1556   28.4923  -76.3896 N.am      9 UNK        -0.4218 
     28 C         -71.1849   27.5792  -76.2182 C.2       9 UNK         0.5020 
     29 O         -70.0945   27.8406  -75.7075 O.2       9 UNK        -0.5274 
     30 CA        -71.4598   26.1223  -76.6468 C.3       8 UNK         0.0270 
     31 CB        -71.2214   25.1593  -75.4702 C.3       8 UNK        -0.1976 
     32 N         -72.8078   25.8973  -77.1736 N.am      8 UNK        -0.4313 
     33 C         -73.2351   26.2368  -78.3969 C.2       8 UNK         0.5041 
     34 O         -72.5087   26.7148  -79.2684 O.2       8 UNK        -0.5577 
     35 CA        -74.7413   26.0703  -78.6711 C.3       7 UNK         0.0284 
     36 CB        -75.0580   24.6429  -79.1439 C.3       7 UNK        -0.1958 
     37 N         -75.5720   26.4004  -77.5074 N.am      7 UNK        -0.4454 
     38 C         -75.6277   27.6062  -76.9222 C.2       7 UNK         0.5089 
     39 O         -75.0181   28.5938  -77.3311 O.2       7 UNK        -0.5125 
     40 CA        -76.4469   27.7127  -75.6277 C.3       6 UNK         0.0408 
     41 CB        -77.9428   27.8680  -75.9235 C.3       6 UNK        -0.1791 
     42 N         -76.2369   26.5548  -74.7608 N.am      6 UNK        -0.4762 
     43 C         -75.1172   26.3352  -74.0601 C.2       6 UNK         0.5007 
     44 O         -74.1564   27.1055  -74.0511 O.2       6 UNK        -0.5032 
     45 CA        -75.0318   25.0088  -73.2799 C.3       5 UNK         0.0783 
     46 C46       -75.5729   25.1451  -71.8339 C.3       11 UNK        -0.0857 
     47 S47       -77.3929   25.0624  -71.7183 S.3       11 UNK        -0.2512 
     48 C48       -77.7423   26.1527  -70.3051 C.3       11 UNK         0.0225 
     49 N         -75.6365   23.8842  -74.0072 N.am      5 UNK        -0.4615 
     50 C         -75.1561   23.3857  -75.1519 C.2       4 UNK         0.5053 
     51 O         -74.1536   23.8229  -75.7136 O.2       4 UNK        -0.5105 
     52 CA        -75.9249   22.2213  -75.7969 C.3       4 UNK         0.0263 
     53 CB        -75.5830   20.8985  -75.0928 C.3       4 UNK        -0.1981 
     54 N         -77.3830   22.3760  -75.8642 N.am      4 UNK        -0.4224 
     55 C         -78.0555   23.4283  -76.3532 C.2       3 UNK         0.4895 
     56 O         -77.5308   24.5000  -76.6562 O.2       3 UNK        -0.5091 
     57 CA        -79.5664   23.2525  -76.5987 C.3       3 UNK         0.0250 
     58 CB        -80.0466   21.7819  -76.6096 C.3       3 UNK        -0.1996 
     59 N         -80.3782   24.0691  -75.6928 N.am      3 UNK        -0.4254 
     60 C         -80.4615   23.9585  -74.3568 C.2       2 UNK         0.5004 
     61 O         -79.8373   23.1287  -73.6944 O.2       2 UNK        -0.5226 
     62 CA        -81.3953   24.9592  -73.6567 C.3       2 UNK         0.0269 
     63 CB        -81.2686   24.9645  -72.1224 C.3       2 UNK        -0.1926 
     64 N         -81.1555   26.2923  -74.2080 N.am      2 UNK        -0.4687 
     65 C         -82.1214   27.1694  -74.4979 C.2       1 UNK         0.5165 
     66 O         -83.2813   27.0779  -74.0889 O.2       1 UNK        -0.5079 
     67 H67       -82.8931   27.1518  -79.6743 H         1 UNK         0.0900 
     68 H68       -84.0797   28.0743  -78.7489 H         1 UNK         0.0900 
     69 H69       -84.1134   26.3097  -78.7151 H         1 UNK         0.0900 
     70 H70       -83.2435   28.9181  -76.8444 H         1 UNK         0.2959 
     71 H71       -80.7257   28.1300  -75.8214 H         1 UNK         0.1079 
     72 H72       -82.6165   29.7899  -74.0987 H         1 UNK         0.0837 
     73 H73       -82.0576   30.4529  -75.6031 H         1 UNK         0.0837 
     74 H74       -80.7988   30.8019  -71.8855 H         1 UNK         0.0685 
     75 H75       -81.2472   29.1479  -72.2229 H         1 UNK         0.0685 
     76 H76       -79.8310   27.3693  -71.5535 H         1 UNK         0.1434 
     77 H77       -75.9304   28.1734  -69.9671 H         1 UNK         0.1329 
     78 H78       -78.2321   31.3372  -71.7293 H         1 UNK         0.1335 
     79 H79       -75.3531   30.5993  -69.5791 H         1 UNK         0.0680 
     80 H80       -76.2470   31.8460  -70.4052 H         1 UNK         0.0680 
     81 H81       -73.4816   29.3256  -70.4226 H         1 UNK         0.1032 
     82 H82       -74.2142   28.5041  -71.7797 H         1 UNK         0.1032 
     83 H83       -71.7418   30.2906  -71.9398 H         1 UNK         0.0461 
     84 H84       -69.9964   26.8084  -72.2909 H         1 UNK         0.3453 
     85 H85       -70.6004   27.7869  -73.6072 H         1 UNK         0.3453 
     86 H86       -73.0541   28.6436  -74.0442 H         1 UNK         0.2984 
     87 H87       -73.1042   30.3128  -76.2328 H         1 UNK         0.0554 
     88 H88       -71.3817   30.4885  -78.0375 H         1 UNK         0.0847 
     89 H89       -70.0992   30.3568  -76.8345 H         1 UNK         0.0847 
     90 H90       -71.1787   31.7434  -76.8271 H         1 UNK         0.0847 
     91 H91       -73.0356   28.1854  -76.7893 H         1 UNK         0.3141 
     92 H92       -70.7408   25.8810  -77.4322 H         1 UNK         0.0743 
     93 H93       -71.3700   24.1217  -75.7698 H         1 UNK         0.0784 
     94 H94       -70.2016   25.2405  -75.0918 H         1 UNK         0.0784 
     95 H95       -71.8955   25.3684  -74.6387 H         1 UNK         0.0784 
     96 H96       -73.4570   25.4187  -76.5537 H         1 UNK         0.3213 
     97 H97       -75.0093   26.7628  -79.4719 H         1 UNK         0.0855 
     98 H98       -74.4929   24.3968  -80.0438 H         1 UNK         0.0814 
     99 H99       -76.1156   24.5286  -79.3824 H         1 UNK         0.0814 
    100 H100      -74.8038   23.9011  -78.3871 H         1 UNK         0.0814 
    101 H101      -76.1487   25.6542  -77.1224 H         1 UNK         0.3105 
    102 H102      -76.1174   28.6051  -75.0904 H         1 UNK         0.0547 
    103 H103      -78.1336   28.7763  -76.4964 H         1 UNK         0.0837 
    104 H104      -78.3408   27.0295  -76.4959 H         1 UNK         0.0837 
    105 H105      -78.5051   27.9438  -74.9940 H         1 UNK         0.0837 
    106 H106      -76.9448   25.8333  -74.7736 H         1 UNK         0.3020 
    107 H107      -73.9644   24.7901  -73.1970 H         1 UNK         0.1245 
    108 H108      -75.2101   26.0640  -71.3693 H         1 UNK         0.0781 
    109 H109      -75.1744   24.3330  -71.2240 H         1 UNK         0.0781 
    110 H110      -76.9753   26.0253  -69.5394 H         1 UNK         0.0836 
    111 H111      -78.6796   25.8367  -69.8449 H         1 UNK         0.0836 
    112 H112      -76.4839   23.4984  -73.6141 H         1 UNK         0.3022 
    113 H113      -75.5753   22.1466  -76.8282 H         1 UNK         0.0747 
    114 H114      -75.9984   20.0441  -75.6276 H         1 UNK         0.0793 
    115 H115      -74.5032   20.7501  -75.0411 H         1 UNK         0.0793 
    116 H116      -75.9649   20.8737  -74.0713 H         1 UNK         0.0793 
    117 H117      -77.9263   21.5643  -75.6089 H         1 UNK         0.3047 
    118 H118      -79.7467   23.6532  -77.5976 H         1 UNK         0.0822 
    119 H119      -79.9505   21.3000  -75.6363 H         1 UNK         0.0807 
    120 H120      -79.4827   21.1890  -77.3311 H         1 UNK         0.0807 
    121 H121      -81.0952   21.7196  -76.9009 H         1 UNK         0.0807 
    122 H122      -80.9105   24.8048  -76.1502 H         1 UNK         0.2946 
    123 H123      -82.4106   24.6408  -73.9062 H         1 UNK         0.1144 
    124 H124      -81.5532   23.9968  -71.7080 H         1 UNK         0.0793 
    125 H125      -80.2477   25.1601  -71.8044 H         1 UNK         0.0793 
    126 H126      -81.9168   25.7148  -71.6696 H         1 UNK         0.0793 
    127 H127      -80.2291   26.4422  -74.5821 H         1 UNK         0.2896 
@<TRIPOS>BOND
     1    1    2 1    
     2    1   67 1    
     3    1   68 1    
     4    1   69 1    
     5    2    3 2    
     6    2    4 am   BACKBONE|DICT|INTERRES
     7    4    5 1    
     8    4   70 1    
     9    5    6 1    
    10    5   65 1    
    11    5   71 1    
    12    6    7 1    
    13    6   72 1    
    14    6   73 1    
    15    7    8 1    
    16    8    9 1    
    17    8   74 1    
    18    8   75 1    
    19    9   10 ar   
    20    9   14 ar   
    21   10   11 ar   
    22   10   76 1    
    23   11   12 ar   
    24   11   48 1    
    25   12   13 ar   
    26   12   77 1    
    27   13   14 ar   
    28   13   15 1    
    29   14   78 1    
    30   15   16 1    
    31   15   79 1    
    32   15   80 1    
    33   16   17 1    
    34   17   18 1    
    35   17   81 1    
    36   17   82 1    
    37   18   19 1    
    38   18   22 1    
    39   18   83 1    
    40   19   20 am   BACKBONE|DICT|INTERRES
    41   19   21 2    
    42   20   84 1    
    43   20   85 1    
    44   22   23 am   BACKBONE|DICT|INTERRES
    45   22   86 1    
    46   23   24 2    
    47   23   25 1    
    48   25   26 1    
    49   25   27 1    
    50   25   87 1    
    51   26   88 1    
    52   26   89 1    
    53   26   90 1    
    54   27   28 am   BACKBONE|DICT|INTERRES
    55   27   91 1    
    56   28   29 2    
    57   28   30 1    
    58   30   31 1    
    59   30   32 1    
    60   30   92 1    
    61   31   93 1    
    62   31   94 1    
    63   31   95 1    
    64   32   33 am   BACKBONE|DICT|INTERRES
    65   32   96 1    
    66   33   34 2    
    67   33   35 1    
    68   35   36 1    
    69   35   37 1    
    70   35   97 1    
    71   36   98 1    
    72   36   99 1    
    73   36  100 1    
    74   37   38 am   BACKBONE|DICT|INTERRES
    75   37  101 1    
    76   38   39 2    
    77   38   40 1    
    78   40   41 1    
    79   40   42 1    
    80   40  102 1    
    81   41  103 1    
    82   41  104 1    
    83   41  105 1    
    84   42   43 am   BACKBONE|DICT|INTERRES
    85   42  106 1    
    86   43   44 2    
    87   43   45 1    
    88   45   46 1    
    89   45   49 1    
    90   45  107 1    
    91   46   47 1    
    92   46  108 1    
    93   46  109 1    
    94   47   48 1    
    95   48  110 1    
    96   48  111 1    
    97   49   50 am   BACKBONE|DICT|INTERRES
    98   49  112 1    
    99   50   51 2    
   100   50   52 1    
   101   52   53 1    
   102   52   54 1    
   103   52  113 1    
   104   53  114 1    
   105   53  115 1    
   106   53  116 1    
   107   54   55 am   BACKBONE|DICT|INTERRES
   108   54  117 1    
   109   55   56 2    
   110   55   57 1    
   111   57   58 1    
   112   57   59 1    
   113   57  118 1    
   114   58  119 1    
   115   58  120 1    
   116   58  121 1    
   117   59   60 am   BACKBONE|DICT|INTERRES
   118   59  122 1    
   119   60   61 2    
   120   60   62 1    
   121   62   63 1    
   122   62   64 1    
   123   62  123 1    
   124   63  124 1    
   125   63  125 1    
   126   63  126 1    
   127   64   65 am   BACKBONE|DICT|INTERRES
   128   64  127 1    
   129   65   66 2    
@<TRIPOS>SUBSTRUCTURE
     1 UNK         1 GROUP             0       ****    0 ROOT    
