@<TRIPOS>MOLECULE
3R135
127   129    1
SMALL
USER_CHARGES


@<TRIPOS>ATOM
      1 CA        -79.8568   29.2633  -70.9072 C.3       0 UNK        -0.1998 
      2 C         -80.8369   28.9838  -72.0343 C.2       0 UNK         0.4909 
      3 O         -82.0107   28.7165  -71.7758 O.2       0 UNK        -0.5240 
      4 N         -80.3638   29.0471  -73.2863 N.am      1 UNK        -0.4739 
      5 CA        -81.1659   28.8061  -74.4931 C.3       1 UNK         0.0864 
      6 C6        -80.6007   29.5536  -75.7280 C.3       11 UNK        -0.0881 
      7 S7        -79.0575   28.8788  -76.4347 S.3       11 UNK        -0.2682 
      8 C8        -77.7740   29.8864  -75.6156 C.3       11 UNK         0.0289 
      9 C9        -77.3192   29.3533  -74.2558 C.ar      11 UNK        -0.0687 
     10 C10       -77.3084   27.9813  -73.9743 C.ar      11 UNK        -0.0823 
     11 C11       -76.8836   27.5052  -72.7313 C.ar      11 UNK        -0.0830 
     12 C12       -76.4671   28.4160  -71.7584 C.ar      11 UNK        -0.1021 
     13 C13       -76.4640   29.7905  -72.0203 C.ar      11 UNK        -0.0753 
     14 C14       -76.8840   30.2501  -73.2735 C.ar      11 UNK        -0.0933 
     15 C15       -76.0955   30.7812  -70.9212 C.3       11 UNK         0.0166 
     16 S16       -74.5124   30.3963  -70.1037 S.3       11 UNK        -0.2615 
     17 C17       -73.3308   31.5051  -70.9515 C.3       11 UNK        -0.0865 
     18 CA        -71.9774   30.8327  -71.3044 C.3       10 UNK         0.0862 
     19 C         -71.2009   30.3516  -70.0401 C.2       10 UNK         0.5551 
     20 N         -70.9581   29.0590  -69.8596 N.am      10 UNK        -0.7319 
     21 O         -70.8042   31.1725  -69.2162 O.2       10 UNK        -0.5018 
     22 N         -72.1377   29.8496  -72.3871 N.am      10 UNK        -0.4509 
     23 C         -71.1367   29.3403  -73.1186 C.2       10 UNK         0.4899 
     24 O         -69.9445   29.5796  -72.9255 O.2       10 UNK        -0.4839 
     25 CA        -71.5419   28.4428  -74.2988 C.3       9 UNK         0.0222 
     26 CB        -71.8790   27.0229  -73.8167 C.3       9 UNK        -0.1966 
     27 N         -72.6694   28.9862  -75.0603 N.am      9 UNK        -0.4218 
     28 C         -72.6733   30.1472  -75.7287 C.2       9 UNK         0.5020 
     29 O         -71.6918   30.8853  -75.8346 O.2       9 UNK        -0.5274 
     30 CA        -74.0018   30.5283  -76.4082 C.3       8 UNK         0.0270 
     31 CB        -74.0282   31.9911  -76.8891 C.3       8 UNK        -0.1976 
     32 N         -74.3142   29.6472  -77.5378 N.am      8 UNK        -0.4313 
     33 C         -74.7295   28.3804  -77.4273 C.2       8 UNK         0.5041 
     34 O         -74.9075   27.8135  -76.3446 O.2       8 UNK        -0.5577 
     35 CA        -74.9677   27.6095  -78.7296 C.3       7 UNK         0.0284 
     36 CB        -73.6273   27.1994  -79.3717 C.3       7 UNK        -0.1958 
     37 N         -75.7476   26.4303  -78.3787 N.am      7 UNK        -0.4454 
     38 C         -76.3475   25.5639  -79.1991 C.2       7 UNK         0.5089 
     39 O         -76.3516   25.6811  -80.4256 O.2       7 UNK        -0.5125 
     40 CA        -77.0839   24.3758  -78.5401 C.3       6 UNK         0.0408 
     41 CB        -76.9712   23.0850  -79.3781 C.3       6 UNK        -0.1791 
     42 N         -76.7084   24.1343  -77.1370 N.am      6 UNK        -0.4762 
     43 C         -75.5019   23.7736  -76.6593 C.2       6 UNK         0.5007 
     44 O         -74.5219   23.5280  -77.3623 O.2       6 UNK        -0.5032 
     45 CA        -75.3721   23.7024  -75.1279 C.3       5 UNK         0.0783 
     46 C46       -75.2884   25.1356  -74.5490 C.3       11 UNK        -0.0857 
     47 S47       -75.2980   25.2156  -72.7279 S.3       11 UNK        -0.2512 
     48 C48       -76.9073   26.0129  -72.4232 C.3       11 UNK         0.0225 
     49 N         -76.4870   22.9174  -74.5941 N.am      5 UNK        -0.4615 
     50 C         -76.4107   21.6104  -74.3053 C.2       4 UNK         0.5053 
     51 O         -75.3641   20.9618  -74.3171 O.2       4 UNK        -0.5105 
     52 CA        -77.7316   20.8898  -73.9762 C.3       4 UNK         0.0263 
     53 CB        -78.0259   20.9681  -72.4694 C.3       4 UNK        -0.1981 
     54 N         -78.8688   21.4340  -74.7207 N.am      4 UNK        -0.4224 
     55 C         -78.9921   21.4284  -76.0568 C.2       3 UNK         0.4895 
     56 O         -78.2483   20.7957  -76.8057 O.2       3 UNK        -0.5091 
     57 CA        -80.1111   22.2955  -76.6684 C.3       3 UNK         0.0250 
     58 CB        -81.1929   21.4102  -77.3087 C.3       3 UNK        -0.1996 
     59 N         -80.7471   23.2175  -75.7189 N.am      3 UNK        -0.4254 
     60 C         -80.1567   24.2624  -75.1216 C.2       2 UNK         0.5004 
     61 O         -78.9787   24.5902  -75.3031 O.2       2 UNK        -0.5226 
     62 CA        -81.0032   24.9711  -74.0563 C.3       2 UNK         0.0269 
     63 CB        -80.7026   24.3898  -72.6641 C.3       2 UNK        -0.1926 
     64 N         -80.7598   26.4111  -74.0329 N.am      2 UNK        -0.4687 
     65 C         -81.4467   27.3074  -74.7558 C.2       1 UNK         0.5165 
     66 O         -82.3086   26.9939  -75.5793 O.2       1 UNK        -0.5079 
     67 H67       -80.3863   29.5585  -70.0017 H         1 UNK         0.0900 
     68 H68       -79.1781   30.0721  -71.1743 H         1 UNK         0.0900 
     69 H69       -79.2699   28.3727  -70.6847 H         1 UNK         0.0900 
     70 H70       -79.3839   29.2449  -73.4444 H         1 UNK         0.2959 
     71 H71       -82.1498   29.2432  -74.3060 H         1 UNK         0.1079 
     72 H72       -81.3465   29.5412  -76.5250 H         1 UNK         0.0837 
     73 H73       -80.4615   30.6093  -75.4907 H         1 UNK         0.0837 
     74 H74       -76.9134   29.9179  -76.2792 H         1 UNK         0.0685 
     75 H75       -78.1232   30.9162  -75.5285 H         1 UNK         0.0685 
     76 H76       -77.6398   27.2790  -74.7256 H         1 UNK         0.1434 
     77 H77       -76.1577   28.0545  -70.7872 H         1 UNK         0.1329 
     78 H78       -76.8922   31.3121  -73.4783 H         1 UNK         0.1335 
     79 H79       -76.8807   30.7511  -70.1649 H         1 UNK         0.0680 
     80 H80       -76.0809   31.8053  -71.2972 H         1 UNK         0.0680 
     81 H81       -73.1608   32.3715  -70.3096 H         1 UNK         0.1032 
     82 H82       -73.7857   31.9025  -71.8602 H         1 UNK         0.1032 
     83 H83       -71.3517   31.6222  -71.7256 H         1 UNK         0.0461 
     84 H84       -71.2832   28.3850  -70.5334 H         1 UNK         0.3453 
     85 H85       -70.4518   28.7578  -69.0423 H         1 UNK         0.3453 
     86 H86       -73.0854   29.5732  -72.5980 H         1 UNK         0.2984 
     87 H87       -70.6877   28.3779  -74.9759 H         1 UNK         0.0554 
     88 H88       -72.0542   26.3522  -74.6578 H         1 UNK         0.0847 
     89 H89       -72.7679   27.0089  -73.1845 H         1 UNK         0.0847 
     90 H90       -71.0578   26.6013  -73.2356 H         1 UNK         0.0847 
     91 H91       -73.5114   28.4183  -75.1277 H         1 UNK         0.3141 
     92 H92       -74.7783   30.4209  -75.6491 H         1 UNK         0.0743 
     93 H93       -75.0081   32.2607  -77.2835 H         1 UNK         0.0784 
     94 H94       -73.8127   32.6754  -76.0672 H         1 UNK         0.0784 
     95 H95       -73.2887   32.1753  -77.6694 H         1 UNK         0.0784 
     96 H96       -74.1554   30.0276  -78.4600 H         1 UNK         0.3213 
     97 H97       -75.5464   28.2316  -79.4153 H         1 UNK         0.0855 
     98 H98       -73.0444   26.5610  -78.7062 H         1 UNK         0.0814 
     99 H99       -73.0165   28.0719  -79.6060 H         1 UNK         0.0814 
    100 H100      -73.7783   26.6569  -80.3048 H         1 UNK         0.0814 
    101 H101      -75.8171   26.2960  -77.3765 H         1 UNK         0.3105 
    102 H102      -78.1369   24.6593  -78.5165 H         1 UNK         0.0547 
    103 H103      -77.3926   23.2262  -80.3739 H         1 UNK         0.0837 
    104 H104      -75.9343   22.7747  -79.5079 H         1 UNK         0.0837 
    105 H105      -77.5122   22.2602  -78.9167 H         1 UNK         0.0837 
    106 H106      -77.4470   24.3305  -76.4652 H         1 UNK         0.3020 
    107 H107      -74.4272   23.2030  -74.9003 H         1 UNK         0.1245 
    108 H108      -76.1007   25.7454  -74.9374 H         1 UNK         0.0781 
    109 H109      -74.3726   25.6186  -74.8917 H         1 UNK         0.0781 
    110 H110      -77.1856   25.8575  -71.3799 H         1 UNK         0.0836 
    111 H111      -77.6717   25.5148  -73.0192 H         1 UNK         0.0836 
    112 H112      -77.3909   23.3728  -74.5817 H         1 UNK         0.3022 
    113 H113      -77.6185   19.8400  -74.2549 H         1 UNK         0.0747 
    114 H114      -78.9244   20.4079  -72.2098 H         1 UNK         0.0793 
    115 H115      -77.2037   20.5448  -71.8906 H         1 UNK         0.0793 
    116 H116      -78.1619   21.9978  -72.1356 H         1 UNK         0.0793 
    117 H117      -79.5523   21.9499  -74.1886 H         1 UNK         0.3047 
    118 H118      -79.6520   22.8964  -77.4557 H         1 UNK         0.0822 
    119 H119      -81.9468   22.0100  -77.8191 H         1 UNK         0.0807 
    120 H120      -81.6994   20.7907  -76.5674 H         1 UNK         0.0807 
    121 H121      -80.7601   20.7394  -78.0524 H         1 UNK         0.0807 
    122 H122      -81.7096   23.0135  -75.4888 H         1 UNK         0.2946 
    123 H123      -82.0604   24.7966  -74.2720 H         1 UNK         0.1144 
    124 H124      -81.2972   24.8828  -71.8945 H         1 UNK         0.0793 
    125 H125      -79.6532   24.4950  -72.3909 H         1 UNK         0.0793 
    126 H126      -80.9443   23.3271  -72.6213 H         1 UNK         0.0793 
    127 H127      -80.0423   26.7489  -73.4098 H         1 UNK         0.2896 
@<TRIPOS>BOND
     1    1    2 1    
     2    1   67 1    
     3    1   68 1    
     4    1   69 1    
     5    2    3 2    
     6    2    4 am   BACKBONE|DICT|INTERRES
     7    4    5 1    
     8    4   70 1    
     9    5    6 1    
    10    5   65 1    
    11    5   71 1    
    12    6    7 1    
    13    6   72 1    
    14    6   73 1    
    15    7    8 1    
    16    8    9 1    
    17    8   74 1    
    18    8   75 1    
    19    9   10 ar   
    20    9   14 ar   
    21   10   11 ar   
    22   10   76 1    
    23   11   12 ar   
    24   11   48 1    
    25   12   13 ar   
    26   12   77 1    
    27   13   14 ar   
    28   13   15 1    
    29   14   78 1    
    30   15   16 1    
    31   15   79 1    
    32   15   80 1    
    33   16   17 1    
    34   17   18 1    
    35   17   81 1    
    36   17   82 1    
    37   18   19 1    
    38   18   22 1    
    39   18   83 1    
    40   19   20 am   BACKBONE|DICT|INTERRES
    41   19   21 2    
    42   20   84 1    
    43   20   85 1    
    44   22   23 am   BACKBONE|DICT|INTERRES
    45   22   86 1    
    46   23   24 2    
    47   23   25 1    
    48   25   26 1    
    49   25   27 1    
    50   25   87 1    
    51   26   88 1    
    52   26   89 1    
    53   26   90 1    
    54   27   28 am   BACKBONE|DICT|INTERRES
    55   27   91 1    
    56   28   29 2    
    57   28   30 1    
    58   30   31 1    
    59   30   32 1    
    60   30   92 1    
    61   31   93 1    
    62   31   94 1    
    63   31   95 1    
    64   32   33 am   BACKBONE|DICT|INTERRES
    65   32   96 1    
    66   33   34 2    
    67   33   35 1    
    68   35   36 1    
    69   35   37 1    
    70   35   97 1    
    71   36   98 1    
    72   36   99 1    
    73   36  100 1    
    74   37   38 am   BACKBONE|DICT|INTERRES
    75   37  101 1    
    76   38   39 2    
    77   38   40 1    
    78   40   41 1    
    79   40   42 1    
    80   40  102 1    
    81   41  103 1    
    82   41  104 1    
    83   41  105 1    
    84   42   43 am   BACKBONE|DICT|INTERRES
    85   42  106 1    
    86   43   44 2    
    87   43   45 1    
    88   45   46 1    
    89   45   49 1    
    90   45  107 1    
    91   46   47 1    
    92   46  108 1    
    93   46  109 1    
    94   47   48 1    
    95   48  110 1    
    96   48  111 1    
    97   49   50 am   BACKBONE|DICT|INTERRES
    98   49  112 1    
    99   50   51 2    
   100   50   52 1    
   101   52   53 1    
   102   52   54 1    
   103   52  113 1    
   104   53  114 1    
   105   53  115 1    
   106   53  116 1    
   107   54   55 am   BACKBONE|DICT|INTERRES
   108   54  117 1    
   109   55   56 2    
   110   55   57 1    
   111   57   58 1    
   112   57   59 1    
   113   57  118 1    
   114   58  119 1    
   115   58  120 1    
   116   58  121 1    
   117   59   60 am   BACKBONE|DICT|INTERRES
   118   59  122 1    
   119   60   61 2    
   120   60   62 1    
   121   62   63 1    
   122   62   64 1    
   123   62  123 1    
   124   63  124 1    
   125   63  125 1    
   126   63  126 1    
   127   64   65 am   BACKBONE|DICT|INTERRES
   128   64  127 1    
   129   65   66 2    
@<TRIPOS>SUBSTRUCTURE
     1 UNK         1 GROUP             0       ****    0 ROOT    
