@<TRIPOS>MOLECULE
3R135
127   129    1
SMALL
USER_CHARGES


@<TRIPOS>ATOM
      1 CA        -82.5237   29.5734  -74.0541 C.3       0 UNK        -0.1998 
      2 C         -83.3697   28.4557  -73.4483 C.2       0 UNK         0.4909 
      3 O         -84.5838   28.6114  -73.3350 O.2       0 UNK        -0.5240 
      4 N         -82.7873   27.3177  -73.0423 N.am      1 UNK        -0.4739 
      5 CA        -81.3605   26.9729  -73.1360 C.3       1 UNK         0.0864 
      6 C6        -80.9506   25.9102  -72.0881 C.3       11 UNK        -0.0881 
      7 S7        -81.1587   26.5343  -70.3858 S.3       11 UNK        -0.2682 
      8 C8        -79.4855   26.3140  -69.6820 C.3       11 UNK         0.0289 
      9 C9        -78.3781   27.1895  -70.2762 C.ar      11 UNK        -0.0687 
     10 C10       -78.6364   28.3864  -70.9584 C.ar      11 UNK        -0.0823 
     11 C11       -77.5877   29.1572  -71.4712 C.ar      11 UNK        -0.0830 
     12 C12       -76.2706   28.7500  -71.2541 C.ar      11 UNK        -0.1021 
     13 C13       -75.9890   27.5564  -70.5856 C.ar      11 UNK        -0.0753 
     14 C14       -77.0500   26.7872  -70.0982 C.ar      11 UNK        -0.0933 
     15 C15       -74.5529   27.0902  -70.3623 C.3       11 UNK         0.0166 
     16 S16       -73.4751   27.2991  -71.8211 S.3       11 UNK        -0.2615 
     17 C17       -72.6920   28.9229  -71.5095 C.3       11 UNK        -0.0865 
     18 CA        -72.7578   29.8979  -72.7169 C.3       10 UNK         0.0862 
     19 C         -72.1016   31.2596  -72.3428 C.2       10 UNK         0.5551 
     20 N         -70.9666   31.6341  -72.9206 N.am      10 UNK        -0.7319 
     21 O         -72.6346   31.9862  -71.5079 O.2       10 UNK        -0.5018 
     22 N         -72.2496   29.2689  -73.9454 N.am      10 UNK        -0.4509 
     23 C         -72.3860   29.7390  -75.1895 C.2       10 UNK         0.4899 
     24 O         -72.9121   30.8203  -75.4534 O.2       10 UNK        -0.4839 
     25 CA        -71.8582   28.8676  -76.3485 C.3       9 UNK         0.0222 
     26 CB        -70.4532   29.3281  -76.7844 C.3       9 UNK        -0.1966 
     27 N         -71.8985   27.4116  -76.1243 N.am      9 UNK        -0.4218 
     28 C         -71.2034   26.6691  -75.2478 C.2       9 UNK         0.5020 
     29 O         -70.4054   27.1444  -74.4387 O.2       9 UNK        -0.5274 
     30 CA        -71.4353   25.1480  -75.2570 C.3       8 UNK         0.0270 
     31 CB        -71.6644   24.5961  -73.8382 C.3       8 UNK        -0.1976 
     32 N         -72.5685   24.7604  -76.1016 N.am      8 UNK        -0.4313 
     33 C         -72.4588   24.1241  -77.2741 C.2       8 UNK         0.5041 
     34 O         -71.3838   23.8250  -77.7964 O.2       8 UNK        -0.5577 
     35 CA        -73.7641   23.7435  -77.9888 C.3       7 UNK         0.0284 
     36 CB        -74.3427   22.4497  -77.3926 C.3       7 UNK        -0.1958 
     37 N         -74.7889   24.7898  -77.9716 N.am      7 UNK        -0.4454 
     38 C         -74.6953   25.9700  -78.6007 C.2       7 UNK         0.5089 
     39 O         -73.6800   26.3658  -79.1730 O.2       7 UNK        -0.5125 
     40 CA        -75.9504   26.8560  -78.5927 C.3       6 UNK         0.0408 
     41 CB        -77.0453   26.2716  -79.4999 C.3       6 UNK        -0.1791 
     42 N         -76.4667   27.0165  -77.2356 N.am      6 UNK        -0.4762 
     43 C         -76.0254   27.9398  -76.3687 C.2       6 UNK         0.5007 
     44 O         -75.2256   28.8222  -76.6730 O.2       6 UNK        -0.5032 
     45 CA        -76.5441   27.8530  -74.9173 C.3       5 UNK         0.0783 
     46 C46       -77.6833   28.8780  -74.6503 C.3       11 UNK        -0.0857 
     47 S47       -77.0715   30.4314  -73.9134 S.3       11 UNK        -0.2512 
     48 C48       -77.8749   30.4252  -72.2689 C.3       11 UNK         0.0225 
     49 N         -76.9382   26.4875  -74.5518 N.am      5 UNK        -0.4615 
     50 C         -76.0817   25.4664  -74.4189 C.2       4 UNK         0.5053 
     51 O         -74.8768   25.5489  -74.6549 O.2       4 UNK        -0.5105 
     52 CA        -76.6631   24.1104  -73.9911 C.3       4 UNK         0.0263 
     53 CB        -76.8771   24.0790  -72.4698 C.3       4 UNK        -0.1981 
     54 N         -77.9034   23.7220  -74.6719 N.am      4 UNK        -0.4224 
     55 C         -78.0553   23.5882  -75.9980 C.2       3 UNK         0.4895 
     56 O         -77.2060   23.9221  -76.8234 O.2       3 UNK        -0.5091 
     57 CA        -79.3765   22.9670  -76.4819 C.3       3 UNK         0.0250 
     58 CB        -79.7401   21.6832  -75.7122 C.3       3 UNK        -0.1996 
     59 N         -80.4681   23.9315  -76.3784 N.am      3 UNK        -0.4254 
     60 C         -80.6848   24.9239  -77.2514 C.2       2 UNK         0.5004 
     61 O         -80.0852   25.0443  -78.3197 O.2       2 UNK        -0.5226 
     62 CA        -81.7405   25.9773  -76.8662 C.3       2 UNK         0.0269 
     63 CB        -83.1018   25.6239  -77.4870 C.3       2 UNK        -0.1926 
     64 N         -81.9164   26.2143  -75.4249 N.am      2 UNK        -0.4687 
     65 C         -80.9458   26.5313  -74.5530 C.2       1 UNK         0.5165 
     66 O         -79.7493   26.5045  -74.8299 O.2       1 UNK        -0.5079 
     67 H67       -83.1559   30.4118  -74.3463 H         1 UNK         0.0900 
     68 H68       -81.9972   29.2351  -74.9454 H         1 UNK         0.0900 
     69 H69       -81.7975   29.9466  -73.3327 H         1 UNK         0.0900 
     70 H70       -83.3693   26.6113  -72.6143 H         1 UNK         0.2959 
     71 H71       -80.7748   27.8690  -72.9309 H         1 UNK         0.1079 
     72 H72       -81.5440   25.0011  -72.2023 H         1 UNK         0.0837 
     73 H73       -79.9098   25.6130  -72.2273 H         1 UNK         0.0837 
     74 H74       -79.5399   26.5191  -68.6122 H         1 UNK         0.0685 
     75 H75       -79.2139   25.2614  -69.7782 H         1 UNK         0.0685 
     76 H76       -79.6529   28.7262  -71.0902 H         1 UNK         0.1434 
     77 H77       -75.4658   29.3599  -71.6314 H         1 UNK         0.1329 
     78 H78       -76.8405   25.8685  -69.5671 H         1 UNK         0.1335 
     79 H79       -74.1319   27.6071  -69.4994 H         1 UNK         0.0680 
     80 H80       -74.5469   26.0288  -70.1097 H         1 UNK         0.0680 
     81 H81       -73.1554   29.3839  -70.6353 H         1 UNK         0.1032 
     82 H82       -71.6522   28.7389  -71.2323 H         1 UNK         0.1032 
     83 H83       -73.8074   30.1225  -72.9106 H         1 UNK         0.0461 
     84 H84       -70.5509   32.5180  -72.6724 H         1 UNK         0.3453 
     85 H85       -70.5294   31.0428  -73.6088 H         1 UNK         0.3453 
     86 H86       -71.7400   28.3991  -73.8276 H         1 UNK         0.2984 
     87 H87       -72.5297   29.0429  -77.1904 H         1 UNK         0.0554 
     88 H88       -70.1067   28.7734  -77.6563 H         1 UNK         0.0847 
     89 H89       -69.7161   29.2015  -75.9910 H         1 UNK         0.0847 
     90 H90       -70.4576   30.3849  -77.0544 H         1 UNK         0.0847 
     91 H91       -72.5406   26.9114  -76.7238 H         1 UNK         0.3141 
     92 H92       -70.5110   24.7052  -75.6330 H         1 UNK         0.0743 
     93 H93       -70.8393   24.8524  -73.1726 H         1 UNK         0.0784 
     94 H94       -72.5772   24.9917  -73.3944 H         1 UNK         0.0784 
     95 H95       -71.7447   23.5092  -73.8474 H         1 UNK         0.0784 
     96 H96       -73.4928   24.9799  -75.7283 H         1 UNK         0.3213 
     97 H97       -73.5166   23.5492  -79.0347 H         1 UNK         0.0855 
     98 H98       -74.6483   22.5857  -76.3545 H         1 UNK         0.0814 
     99 H99       -73.6070   21.6445  -77.4148 H         1 UNK         0.0814 
    100 H100      -75.2127   22.1090  -77.9543 H         1 UNK         0.0814 
    101 H101      -75.6736   24.5439  -77.5281 H         1 UNK         0.3105 
    102 H102      -75.6776   27.8338  -78.9958 H         1 UNK         0.0547 
    103 H103      -77.9196   26.9217  -79.5338 H         1 UNK         0.0837 
    104 H104      -76.6846   26.1594  -80.5230 H         1 UNK         0.0837 
    105 H105      -77.3781   25.2894  -79.1628 H         1 UNK         0.0837 
    106 H106      -77.0959   26.2993  -76.8976 H         1 UNK         0.3020 
    107 H107      -75.6945   28.0985  -74.2742 H         1 UNK         0.1245 
    108 H108      -78.4150   28.4612  -73.9605 H         1 UNK         0.0781 
    109 H109      -78.2501   29.1080  -75.5547 H         1 UNK         0.0781 
    110 H110      -77.5243   31.2880  -71.7011 H         1 UNK         0.0836 
    111 H111      -78.9486   30.5626  -72.4060 H         1 UNK         0.0836 
    112 H112      -77.9361   26.3261  -74.4416 H         1 UNK         0.3022 
    113 H113      -75.9165   23.3528  -74.2378 H         1 UNK         0.0747 
    114 H114      -77.1597   23.0840  -72.1261 H         1 UNK         0.0793 
    115 H115      -77.6535   24.7775  -72.1586 H         1 UNK         0.0793 
    116 H116      -75.9627   24.3556  -71.9422 H         1 UNK         0.0793 
    117 H117      -78.6686   23.4433  -74.0772 H         1 UNK         0.3047 
    118 H118      -79.2416   22.6939  -77.5311 H         1 UNK         0.0822 
    119 H119      -78.9112   20.9738  -75.7222 H         1 UNK         0.0807 
    120 H120      -80.5939   21.1835  -76.1705 H         1 UNK         0.0807 
    121 H121      -79.9945   21.8773  -74.6699 H         1 UNK         0.0807 
    122 H122      -81.0141   23.9238  -75.5299 H         1 UNK         0.2946 
    123 H123      -81.4040   26.9208  -77.3016 H         1 UNK         0.1144 
    124 H124      -83.0124   25.4659  -78.5630 H         1 UNK         0.0793 
    125 H125      -83.8266   26.4248  -77.3398 H         1 UNK         0.0793 
    126 H126      -83.5159   24.7111  -77.0569 H         1 UNK         0.0793 
    127 H127      -82.8692   26.2489  -75.0907 H         1 UNK         0.2896 
@<TRIPOS>BOND
     1    1    2 1    
     2    1   67 1    
     3    1   68 1    
     4    1   69 1    
     5    2    3 2    
     6    2    4 am   BACKBONE|DICT|INTERRES
     7    4    5 1    
     8    4   70 1    
     9    5    6 1    
    10    5   65 1    
    11    5   71 1    
    12    6    7 1    
    13    6   72 1    
    14    6   73 1    
    15    7    8 1    
    16    8    9 1    
    17    8   74 1    
    18    8   75 1    
    19    9   10 ar   
    20    9   14 ar   
    21   10   11 ar   
    22   10   76 1    
    23   11   12 ar   
    24   11   48 1    
    25   12   13 ar   
    26   12   77 1    
    27   13   14 ar   
    28   13   15 1    
    29   14   78 1    
    30   15   16 1    
    31   15   79 1    
    32   15   80 1    
    33   16   17 1    
    34   17   18 1    
    35   17   81 1    
    36   17   82 1    
    37   18   19 1    
    38   18   22 1    
    39   18   83 1    
    40   19   20 am   BACKBONE|DICT|INTERRES
    41   19   21 2    
    42   20   84 1    
    43   20   85 1    
    44   22   23 am   BACKBONE|DICT|INTERRES
    45   22   86 1    
    46   23   24 2    
    47   23   25 1    
    48   25   26 1    
    49   25   27 1    
    50   25   87 1    
    51   26   88 1    
    52   26   89 1    
    53   26   90 1    
    54   27   28 am   BACKBONE|DICT|INTERRES
    55   27   91 1    
    56   28   29 2    
    57   28   30 1    
    58   30   31 1    
    59   30   32 1    
    60   30   92 1    
    61   31   93 1    
    62   31   94 1    
    63   31   95 1    
    64   32   33 am   BACKBONE|DICT|INTERRES
    65   32   96 1    
    66   33   34 2    
    67   33   35 1    
    68   35   36 1    
    69   35   37 1    
    70   35   97 1    
    71   36   98 1    
    72   36   99 1    
    73   36  100 1    
    74   37   38 am   BACKBONE|DICT|INTERRES
    75   37  101 1    
    76   38   39 2    
    77   38   40 1    
    78   40   41 1    
    79   40   42 1    
    80   40  102 1    
    81   41  103 1    
    82   41  104 1    
    83   41  105 1    
    84   42   43 am   BACKBONE|DICT|INTERRES
    85   42  106 1    
    86   43   44 2    
    87   43   45 1    
    88   45   46 1    
    89   45   49 1    
    90   45  107 1    
    91   46   47 1    
    92   46  108 1    
    93   46  109 1    
    94   47   48 1    
    95   48  110 1    
    96   48  111 1    
    97   49   50 am   BACKBONE|DICT|INTERRES
    98   49  112 1    
    99   50   51 2    
   100   50   52 1    
   101   52   53 1    
   102   52   54 1    
   103   52  113 1    
   104   53  114 1    
   105   53  115 1    
   106   53  116 1    
   107   54   55 am   BACKBONE|DICT|INTERRES
   108   54  117 1    
   109   55   56 2    
   110   55   57 1    
   111   57   58 1    
   112   57   59 1    
   113   57  118 1    
   114   58  119 1    
   115   58  120 1    
   116   58  121 1    
   117   59   60 am   BACKBONE|DICT|INTERRES
   118   59  122 1    
   119   60   61 2    
   120   60   62 1    
   121   62   63 1    
   122   62   64 1    
   123   62  123 1    
   124   63  124 1    
   125   63  125 1    
   126   63  126 1    
   127   64   65 am   BACKBONE|DICT|INTERRES
   128   64  127 1    
   129   65   66 2    
@<TRIPOS>SUBSTRUCTURE
     1 UNK         1 GROUP             0       ****    0 ROOT    
