@<TRIPOS>MOLECULE
3R135
127   129    1
SMALL
USER_CHARGES


@<TRIPOS>ATOM
      1 CA        -85.9889   28.6016  -74.5988 C.3       0 UNK        -0.1998 
      2 C         -84.5254   28.6097  -75.0129 C.2       0 UNK         0.4909 
      3 O         -84.1907   29.1455  -76.0695 O.2       0 UNK        -0.5240 
      4 N         -83.6502   28.0183  -74.1892 N.am      1 UNK        -0.4739 
      5 CA        -82.1999   27.9435  -74.4217 C.3       1 UNK         0.0864 
      6 C6        -81.4153   27.6420  -73.1190 C.3       11 UNK        -0.0881 
      7 S7        -81.7704   28.8327  -71.7807 S.3       11 UNK        -0.2682 
      8 C8        -80.3620   29.9870  -71.9291 C.3       11 UNK         0.0289 
      9 C9        -79.0344   29.5269  -71.3182 C.ar      11 UNK        -0.0687 
     10 C10       -78.8058   28.2212  -70.8607 C.ar      11 UNK        -0.0823 
     11 C11       -77.5647   27.8554  -70.3298 C.ar      11 UNK        -0.0830 
     12 C12       -76.5529   28.8135  -70.2203 C.ar      11 UNK        -0.1021 
     13 C13       -76.7511   30.1070  -70.7070 C.ar      11 UNK        -0.0753 
     14 C14       -77.9930   30.4573  -71.2435 C.ar      11 UNK        -0.0933 
     15 C15       -75.6140   31.1163  -70.6969 C.3       11 UNK         0.0166 
     16 S16       -74.5984   30.9692  -72.2038 S.3       11 UNK        -0.2615 
     17 C17       -73.5134   29.5603  -71.7869 C.3       11 UNK        -0.0865 
     18 CA        -72.1421   29.6523  -72.5087 C.3       10 UNK         0.0862 
     19 C         -71.0707   28.7228  -71.8606 C.2       10 UNK         0.5551 
     20 N         -70.2610   27.9911  -72.6167 N.am      10 UNK        -0.7319 
     21 O         -70.9567   28.6740  -70.6385 O.2       10 UNK        -0.5018 
     22 N         -72.2910   29.4645  -73.9616 N.am      10 UNK        -0.4509 
     23 C         -71.5378   30.0529  -74.8970 C.2       10 UNK         0.4899 
     24 O         -70.6843   30.9087  -74.6565 O.2       10 UNK        -0.4839 
     25 CA        -71.7604   29.5574  -76.3401 C.3       9 UNK         0.0222 
     26 CB        -70.7909   30.1957  -77.3566 C.3       9 UNK        -0.1966 
     27 N         -71.7192   28.0920  -76.4361 N.am      9 UNK        -0.4218 
     28 C         -70.7195   27.2757  -76.0658 C.2       9 UNK         0.5020 
     29 O         -69.6493   27.6716  -75.6027 O.2       9 UNK        -0.5274 
     30 CA        -70.9519   25.7567  -76.1770 C.3       8 UNK         0.0270 
     31 CB        -71.0862   25.1378  -74.7754 C.3       8 UNK        -0.1976 
     32 N         -72.1303   25.3921  -76.9654 N.am      8 UNK        -0.4313 
     33 C         -72.2221   25.4669  -78.2996 C.2       8 UNK         0.5041 
     34 O         -71.2956   25.8086  -79.0350 O.2       8 UNK        -0.5577 
     35 CA        -73.5951   25.1378  -78.9085 C.3       7 UNK         0.0284 
     36 CB        -73.7753   23.6195  -79.0706 C.3       7 UNK        -0.1958 
     37 N         -74.6955   25.6843  -78.1095 N.am      7 UNK        -0.4454 
     38 C         -74.9856   26.9895  -78.0102 C.2       7 UNK         0.5089 
     39 O         -74.3840   27.8752  -78.6167 O.2       7 UNK        -0.5125 
     40 CA        -76.1129   27.3738  -77.0398 C.3       6 UNK         0.0408 
     41 CB        -77.4843   27.2388  -77.7183 C.3       6 UNK        -0.1791 
     42 N         -76.0840   26.5742  -75.8134 N.am      6 UNK        -0.4762 
     43 C         -75.1627   26.7196  -74.8476 C.2       6 UNK         0.5007 
     44 O         -74.2611   27.5577  -74.8839 O.2       6 UNK        -0.5032 
     45 CA        -75.2425   25.7671  -73.6362 C.3       5 UNK         0.0783 
     46 C46       -76.1838   26.3756  -72.5739 C.3       11 UNK        -0.0857 
     47 S47       -75.9475   25.6418  -70.9204 S.3       11 UNK        -0.2512 
     48 C48       -77.2962   26.4046  -69.9443 C.3       11 UNK         0.0225 
     49 N         -75.6546   24.4070  -73.9922 N.am      5 UNK        -0.4615 
     50 C         -75.0972   23.6277  -74.9282 C.2       4 UNK         0.5053 
     51 O         -74.0728   23.9228  -75.5413 O.2       4 UNK        -0.5105 
     52 CA        -75.8428   22.3311  -75.2954 C.3       4 UNK         0.0263 
     53 CB        -75.1864   21.1262  -74.6042 C.3       4 UNK        -0.1981 
     54 N         -77.2815   22.3456  -74.9906 N.am      4 UNK        -0.4224 
     55 C         -78.1695   23.2403  -75.4498 C.2       3 UNK         0.4895 
     56 O         -77.8763   24.1866  -76.1869 O.2       3 UNK        -0.5091 
     57 CA        -79.6076   23.0818  -74.9448 C.3       3 UNK         0.0250 
     58 CB        -79.7111   23.4476  -73.4506 C.3       3 UNK        -0.1996 
     59 N         -80.4852   23.9601  -75.7108 N.am      3 UNK        -0.4254 
     60 C         -81.7698   23.7319  -75.9944 C.2       2 UNK         0.5004 
     61 O         -82.3780   22.7181  -75.6484 O.2       2 UNK        -0.5226 
     62 CA        -82.5059   24.8604  -76.7388 C.3       2 UNK         0.0269 
     63 CB        -83.8599   24.4070  -77.3158 C.3       2 UNK        -0.1926 
     64 N         -82.7321   25.9882  -75.8338 N.am      2 UNK        -0.4687 
     65 C         -81.8199   26.9160  -75.5101 C.2       1 UNK         0.5165 
     66 O         -80.6981   26.9609  -76.0159 O.2       1 UNK        -0.5079 
     67 H67       -86.1457   28.0614  -73.6643 H         1 UNK         0.0900 
     68 H68       -86.3455   29.6232  -74.4643 H         1 UNK         0.0900 
     69 H69       -86.5951   28.1272  -75.3711 H         1 UNK         0.0900 
     70 H70       -83.9738   27.6182  -73.3198 H         1 UNK         0.2959 
     71 H71       -81.8702   28.9171  -74.7912 H         1 UNK         0.1079 
     72 H72       -81.6582   26.6436  -72.7497 H         1 UNK         0.0837 
     73 H73       -80.3408   27.6356  -73.3143 H         1 UNK         0.0837 
     74 H74       -80.2070   30.2233  -72.9826 H         1 UNK         0.0685 
     75 H75       -80.6559   30.9205  -71.4474 H         1 UNK         0.0685 
     76 H76       -79.5803   27.4723  -70.9337 H         1 UNK         0.1434 
     77 H77       -75.5896   28.5300  -69.8191 H         1 UNK         0.1329 
     78 H78       -78.1445   31.4597  -71.6209 H         1 UNK         0.1335 
     79 H79       -76.0181   32.1285  -70.6464 H         1 UNK         0.0680 
     80 H80       -74.9969   30.9938  -69.8057 H         1 UNK         0.0680 
     81 H81       -73.3772   29.5506  -70.7043 H         1 UNK         0.1032 
     82 H82       -74.0173   28.6265  -72.0369 H         1 UNK         0.1032 
     83 H83       -71.7623   30.6608  -72.3355 H         1 UNK         0.0461 
     84 H84       -69.5728   27.4086  -72.1680 H         1 UNK         0.3453 
     85 H85       -70.2767   28.0615  -73.6257 H         1 UNK         0.3453 
     86 H86       -72.9719   28.7687  -74.2575 H         1 UNK         0.2984 
     87 H87       -72.7736   29.8537  -76.6160 H         1 UNK         0.0554 
     88 H88       -70.9972   29.8509  -78.3698 H         1 UNK         0.0847 
     89 H89       -69.7507   29.9610  -77.1279 H         1 UNK         0.0847 
     90 H90       -70.8863   31.2821  -77.3581 H         1 UNK         0.0847 
     91 H91       -72.5757   27.6576  -76.7520 H         1 UNK         0.3141 
     92 H92       -70.0719   25.3266  -76.6596 H         1 UNK         0.0743 
     93 H93       -71.9356   25.5539  -74.2326 H         1 UNK         0.0784 
     94 H94       -71.2197   24.0571  -74.8285 H         1 UNK         0.0784 
     95 H95       -70.1935   25.3238  -74.1768 H         1 UNK         0.0784 
     96 H96       -72.9222   25.0121  -76.4478 H         1 UNK         0.3213 
     97 H97       -73.6368   25.5932  -79.9006 H         1 UNK         0.0855 
     98 H98       -73.7443   23.0996  -78.1126 H         1 UNK         0.0814 
     99 H99       -72.9839   23.1996  -79.6930 H         1 UNK         0.0814 
    100 H100      -74.7244   23.3815  -79.5512 H         1 UNK         0.0814 
    101 H101      -75.2225   25.0335  -77.5446 H         1 UNK         0.3105 
    102 H102      -75.9755   28.4226  -76.7669 H         1 UNK         0.0547 
    103 H103      -78.2846   27.5739  -77.0590 H         1 UNK         0.0837 
    104 H104      -77.5343   27.8475  -78.6220 H         1 UNK         0.0837 
    105 H105      -77.6975   26.2089  -78.0067 H         1 UNK         0.0837 
    106 H106      -76.7724   25.8310  -75.7375 H         1 UNK         0.3020 
    107 H107      -74.2339   25.7047  -73.2223 H         1 UNK         0.1245 
    108 H108      -77.2292   26.2690  -72.8711 H         1 UNK         0.0781 
    109 H109      -76.0045   27.4479  -72.4868 H         1 UNK         0.0781 
    110 H110      -77.0420   26.3537  -68.8847 H         1 UNK         0.0836 
    111 H111      -78.1956   25.8002  -70.0716 H         1 UNK         0.0836 
    112 H112      -76.4795   24.0634  -73.5250 H         1 UNK         0.3022 
    113 H113      -75.7424   22.2026  -76.3751 H         1 UNK         0.0747 
    114 H114      -75.6301   20.1870  -74.9350 H         1 UNK         0.0793 
    115 H115      -74.1210   21.0765  -74.8348 H         1 UNK         0.0793 
    116 H116      -75.2823   21.1813  -73.5190 H         1 UNK         0.0793 
    117 H117      -77.6134   21.6100  -74.3827 H         1 UNK         0.3047 
    118 H118      -79.9060   22.0416  -75.0945 H         1 UNK         0.0822 
    119 H119      -79.3999   24.4769  -73.2653 H         1 UNK         0.0807 
    120 H120      -79.0863   22.7996  -72.8349 H         1 UNK         0.0807 
    121 H121      -80.7338   23.3409  -73.0881 H         1 UNK         0.0807 
    122 H122      -80.0493   24.8133  -76.0446 H         1 UNK         0.2946 
    123 H123      -81.8753   25.1805  -77.5716 H         1 UNK         0.1144 
    124 H124      -83.7304   23.5632  -77.9944 H         1 UNK         0.0793 
    125 H125      -84.5519   24.0938  -76.5334 H         1 UNK         0.0793 
    126 H126      -84.3361   25.2072  -77.8824 H         1 UNK         0.0793 
    127 H127      -83.6186   26.0120  -75.3513 H         1 UNK         0.2896 
@<TRIPOS>BOND
     1    1    2 1    
     2    1   67 1    
     3    1   68 1    
     4    1   69 1    
     5    2    3 2    
     6    2    4 am   BACKBONE|DICT|INTERRES
     7    4    5 1    
     8    4   70 1    
     9    5    6 1    
    10    5   65 1    
    11    5   71 1    
    12    6    7 1    
    13    6   72 1    
    14    6   73 1    
    15    7    8 1    
    16    8    9 1    
    17    8   74 1    
    18    8   75 1    
    19    9   10 ar   
    20    9   14 ar   
    21   10   11 ar   
    22   10   76 1    
    23   11   12 ar   
    24   11   48 1    
    25   12   13 ar   
    26   12   77 1    
    27   13   14 ar   
    28   13   15 1    
    29   14   78 1    
    30   15   16 1    
    31   15   79 1    
    32   15   80 1    
    33   16   17 1    
    34   17   18 1    
    35   17   81 1    
    36   17   82 1    
    37   18   19 1    
    38   18   22 1    
    39   18   83 1    
    40   19   20 am   BACKBONE|DICT|INTERRES
    41   19   21 2    
    42   20   84 1    
    43   20   85 1    
    44   22   23 am   BACKBONE|DICT|INTERRES
    45   22   86 1    
    46   23   24 2    
    47   23   25 1    
    48   25   26 1    
    49   25   27 1    
    50   25   87 1    
    51   26   88 1    
    52   26   89 1    
    53   26   90 1    
    54   27   28 am   BACKBONE|DICT|INTERRES
    55   27   91 1    
    56   28   29 2    
    57   28   30 1    
    58   30   31 1    
    59   30   32 1    
    60   30   92 1    
    61   31   93 1    
    62   31   94 1    
    63   31   95 1    
    64   32   33 am   BACKBONE|DICT|INTERRES
    65   32   96 1    
    66   33   34 2    
    67   33   35 1    
    68   35   36 1    
    69   35   37 1    
    70   35   97 1    
    71   36   98 1    
    72   36   99 1    
    73   36  100 1    
    74   37   38 am   BACKBONE|DICT|INTERRES
    75   37  101 1    
    76   38   39 2    
    77   38   40 1    
    78   40   41 1    
    79   40   42 1    
    80   40  102 1    
    81   41  103 1    
    82   41  104 1    
    83   41  105 1    
    84   42   43 am   BACKBONE|DICT|INTERRES
    85   42  106 1    
    86   43   44 2    
    87   43   45 1    
    88   45   46 1    
    89   45   49 1    
    90   45  107 1    
    91   46   47 1    
    92   46  108 1    
    93   46  109 1    
    94   47   48 1    
    95   48  110 1    
    96   48  111 1    
    97   49   50 am   BACKBONE|DICT|INTERRES
    98   49  112 1    
    99   50   51 2    
   100   50   52 1    
   101   52   53 1    
   102   52   54 1    
   103   52  113 1    
   104   53  114 1    
   105   53  115 1    
   106   53  116 1    
   107   54   55 am   BACKBONE|DICT|INTERRES
   108   54  117 1    
   109   55   56 2    
   110   55   57 1    
   111   57   58 1    
   112   57   59 1    
   113   57  118 1    
   114   58  119 1    
   115   58  120 1    
   116   58  121 1    
   117   59   60 am   BACKBONE|DICT|INTERRES
   118   59  122 1    
   119   60   61 2    
   120   60   62 1    
   121   62   63 1    
   122   62   64 1    
   123   62  123 1    
   124   63  124 1    
   125   63  125 1    
   126   63  126 1    
   127   64   65 am   BACKBONE|DICT|INTERRES
   128   64  127 1    
   129   65   66 2    
@<TRIPOS>SUBSTRUCTURE
     1 UNK         1 GROUP             0       ****    0 ROOT    
