@<TRIPOS>MOLECULE
3R135
127   129    1
SMALL
USER_CHARGES


@<TRIPOS>ATOM
      1 CA        -76.0071   22.9167  -72.5295 C.3       0 UNK        -0.1998 
      2 C         -77.2818   23.0024  -71.7019 C.2       0 UNK         0.4909 
      3 O         -77.2682   22.6717  -70.5161 O.2       0 UNK        -0.5240 
      4 N         -78.3810   23.4441  -72.3191 N.am      1 UNK        -0.4739 
      5 CA        -79.7113   23.5775  -71.7242 C.3       1 UNK         0.0864 
      6 C6        -79.8296   24.7633  -70.7173 C.3       11 UNK        -0.0881 
      7 S7        -79.8863   26.4501  -71.4264 S.3       11 UNK        -0.2682 
      8 C8        -78.1900   26.6281  -72.0432 C.3       11 UNK         0.0289 
      9 C9        -77.8149   28.0800  -72.2807 C.ar      11 UNK        -0.0687 
     10 C10       -78.2726   28.7544  -73.4161 C.ar      11 UNK        -0.0823 
     11 C11       -77.8331   30.0531  -73.6920 C.ar      11 UNK        -0.0830 
     12 C12       -76.9413   30.6805  -72.8151 C.ar      11 UNK        -0.1021 
     13 C13       -76.4991   30.0232  -71.6633 C.ar      11 UNK        -0.0753 
     14 C14       -76.9515   28.7291  -71.3949 C.ar      11 UNK        -0.0933 
     15 C15       -75.5161   30.6919  -70.7151 C.3       11 UNK         0.0166 
     16 S16       -73.8739   29.9136  -70.8358 S.3       11 UNK        -0.2615 
     17 C17       -72.7963   31.3399  -71.1963 C.3       11 UNK        -0.0865 
     18 CA        -72.7110   31.6838  -72.7063 C.3       10 UNK         0.0862 
     19 C         -71.8053   32.9300  -72.9116 C.2       10 UNK         0.5551 
     20 N         -72.3891   34.1192  -72.9696 N.am      10 UNK        -0.7319 
     21 O         -70.5808   32.8303  -72.9662 O.2       10 UNK        -0.5018 
     22 N         -72.2943   30.5215  -73.5070 N.am      10 UNK        -0.4509 
     23 C         -72.1714   30.4873  -74.8394 C.2       10 UNK         0.4899 
     24 O         -72.4159   31.4421  -75.5776 O.2       10 UNK        -0.4839 
     25 CA        -71.7250   29.1584  -75.4724 C.3       9 UNK         0.0222 
     26 CB        -70.2002   28.9585  -75.3680 C.3       9 UNK        -0.1966 
     27 N         -72.4763   27.9919  -74.9930 N.am      9 UNK        -0.4218 
     28 C         -72.4358   27.3837  -73.7989 C.2       9 UNK         0.5020 
     29 O         -71.6999   27.7308  -72.8741 O.2       9 UNK        -0.5274 
     30 CA        -73.3931   26.1953  -73.5912 C.3       8 UNK         0.0270 
     31 CB        -74.7362   26.6847  -73.0365 C.3       8 UNK        -0.1976 
     32 N         -73.6346   25.4121  -74.8059 N.am      8 UNK        -0.4313 
     33 C         -72.7189   24.6315  -75.3980 C.2       8 UNK         0.5041 
     34 O         -71.5724   24.4734  -74.9771 O.2       8 UNK        -0.5577 
     35 CA        -73.1573   23.9029  -76.6768 C.3       7 UNK         0.0284 
     36 CB        -73.9668   22.6422  -76.3314 C.3       7 UNK        -0.1958 
     37 N         -73.9421   24.7785  -77.5492 N.am      7 UNK        -0.4454 
     38 C         -73.4065   25.6858  -78.3793 C.2       7 UNK         0.5089 
     39 O         -72.1958   25.8251  -78.5532 O.2       7 UNK        -0.5125 
     40 CA        -74.3818   26.6038  -79.1416 C.3       6 UNK         0.0408 
     41 CB        -74.7242   26.0013  -80.5132 C.3       6 UNK        -0.1791 
     42 N         -75.6219   26.8825  -78.4107 N.am      6 UNK        -0.4762 
     43 C         -75.6886   27.5509  -77.2487 C.2       6 UNK         0.5007 
     44 O         -74.7044   28.0202  -76.6816 O.2       6 UNK        -0.5032 
     45 CA        -77.0700   27.6356  -76.5673 C.3       5 UNK         0.0783 
     46 C46       -77.8751   28.8818  -77.0104 C.3       11 UNK        -0.0857 
     47 S47       -77.2170   30.4564  -76.3611 S.3       11 UNK        -0.2512 
     48 C48       -78.3096   30.7806  -74.9399 C.3       11 UNK         0.0225 
     49 N         -77.8503   26.4122  -76.7727 N.am      5 UNK        -0.4615 
     50 C         -77.5196   25.1927  -76.3356 C.2       4 UNK         0.5053 
     51 O         -76.5258   24.9737  -75.6387 O.2       4 UNK        -0.5105 
     52 CA        -78.4213   24.0318  -76.8043 C.3       4 UNK         0.0263 
     53 CB        -78.0415   22.6843  -76.1642 C.3       4 UNK        -0.1981 
     54 N         -79.8573   24.2833  -76.6124 N.am      4 UNK        -0.4224 
     55 C         -80.6154   25.0551  -77.4094 C.2       3 UNK         0.4895 
     56 O         -80.1445   25.7281  -78.3281 O.2       3 UNK        -0.5091 
     57 CA        -82.1390   25.0922  -77.1855 C.3       3 UNK         0.0250 
     58 CB        -82.8649   24.4132  -78.3597 C.3       3 UNK        -0.1996 
     59 N         -82.5681   24.4540  -75.9411 N.am      3 UNK        -0.4254 
     60 C         -82.6490   25.0683  -74.7544 C.2       2 UNK         0.5004 
     61 O         -82.3839   26.2584  -74.5802 O.2       2 UNK        -0.5226 
     62 CA        -83.0771   24.2101  -73.5449 C.3       2 UNK         0.0269 
     63 CB        -83.6792   22.8356  -73.9201 C.3       2 UNK        -0.1926 
     64 N         -81.9744   24.0416  -72.5901 N.am      2 UNK        -0.4687 
     65 C         -80.7494   23.5689  -72.8646 C.2       1 UNK         0.5165 
     66 O         -80.4217   23.1420  -73.9763 O.2       1 UNK        -0.5079 
     67 H67       -75.7216   21.8752  -72.6737 H         1 UNK         0.0900 
     68 H68       -76.1265   23.3759  -73.5101 H         1 UNK         0.0900 
     69 H69       -75.1908   23.4263  -72.0182 H         1 UNK         0.0900 
     70 H70       -78.3686   23.6305  -73.3133 H         1 UNK         0.2959 
     71 H71       -79.8992   22.6569  -71.1671 H         1 UNK         0.1079 
     72 H72       -79.0135   24.7229  -69.9946 H         1 UNK         0.0837 
     73 H73       -80.7313   24.6374  -70.1161 H         1 UNK         0.0837 
     74 H74       -77.4963   26.1710  -71.3358 H         1 UNK         0.0685 
     75 H75       -78.0871   26.0775  -72.9792 H         1 UNK         0.0685 
     76 H76       -78.9496   28.2556  -74.0964 H         1 UNK         0.1434 
     77 H77       -76.5874   31.6787  -73.0337 H         1 UNK         0.1329 
     78 H78       -76.5921   28.2120  -70.5156 H         1 UNK         0.1335 
     79 H79       -75.4518   31.7603  -70.9254 H         1 UNK         0.0680 
     80 H80       -75.8781   30.6024  -69.6899 H         1 UNK         0.0680 
     81 H81       -73.1423   32.2003  -70.6200 H         1 UNK         0.1032 
     82 H82       -71.8021   31.1066  -70.8099 H         1 UNK         0.1032 
     83 H83       -73.7161   31.9407  -73.0470 H         1 UNK         0.0461 
     84 H84       -73.3915   34.2125  -72.9163 H         1 UNK         0.3453 
     85 H85       -71.8162   34.9408  -73.0844 H         1 UNK         0.3453 
     86 H86       -72.0773   29.6735  -72.9928 H         1 UNK         0.2984 
     87 H87       -71.9656   29.2249  -76.5348 H         1 UNK         0.0554 
     88 H88       -69.8869   28.0386  -75.8616 H         1 UNK         0.0847 
     89 H89       -69.8600   28.9174  -74.3331 H         1 UNK         0.0847 
     90 H90       -69.6695   29.7821  -75.8472 H         1 UNK         0.0847 
     91 H91       -73.2148   27.7004  -75.6307 H         1 UNK         0.3141 
     92 H92       -72.9413   25.5319  -72.8508 H         1 UNK         0.0743 
     93 H93       -75.2127   27.4026  -73.7052 H         1 UNK         0.0784 
     94 H94       -75.4290   25.8591  -72.8798 H         1 UNK         0.0784 
     95 H95       -74.5966   27.1793  -72.0749 H         1 UNK         0.0784 
     96 H96       -74.5737   25.4365  -75.1902 H         1 UNK         0.3213 
     97 H97       -72.2581   23.5874  -77.2113 H         1 UNK         0.0855 
     98 H98       -73.3599   21.9396  -75.7589 H         1 UNK         0.0814 
     99 H99       -74.3018   22.1235  -77.2297 H         1 UNK         0.0814 
    100 H100      -74.8433   22.8743  -75.7273 H         1 UNK         0.0814 
    101 H101      -74.9460   24.7525  -77.4428 H         1 UNK         0.3105 
    102 H102      -73.8734   27.5564  -79.3058 H         1 UNK         0.0547 
    103 H103      -73.8188   25.8079  -81.0904 H         1 UNK         0.0837 
    104 H104      -75.2577   25.0547  -80.4188 H         1 UNK         0.0837 
    105 H105      -75.3417   26.6792  -81.1026 H         1 UNK         0.0837 
    106 H106      -76.4783   26.5238  -78.8083 H         1 UNK         0.3020 
    107 H107      -76.8768   27.7091  -75.4964 H         1 UNK         0.1245 
    108 H108      -78.9136   28.7864  -76.6901 H         1 UNK         0.0781 
    109 H109      -77.9150   28.9476  -78.0994 H         1 UNK         0.0781 
    110 H110      -79.3390   30.5076  -75.1769 H         1 UNK         0.0836 
    111 H111      -78.3239   31.8555  -74.7533 H         1 UNK         0.0836 
    112 H112      -78.6728   26.4808  -77.3659 H         1 UNK         0.3022 
    113 H113      -78.2453   23.9264  -77.8770 H         1 UNK         0.0747 
    114 H114      -78.7111   21.8873  -76.4876 H         1 UNK         0.0793 
    115 H115      -77.0328   22.3882  -76.4511 H         1 UNK         0.0793 
    116 H116      -78.0712   22.7238  -75.0771 H         1 UNK         0.0793 
    117 H117      -80.2882   23.8183  -75.8178 H         1 UNK         0.3047 
    118 H118      -82.4353   26.1435  -77.1701 H         1 UNK         0.0822 
    119 H119      -83.9474   24.4845  -78.2516 H         1 UNK         0.0807 
    120 H120      -82.6036   23.3573  -78.4410 H         1 UNK         0.0807 
    121 H121      -82.6055   24.8867  -79.3079 H         1 UNK         0.0807 
    122 H122      -82.7767   23.4666  -75.9838 H         1 UNK         0.2946 
    123 H123      -83.8537   24.7816  -73.0334 H         1 UNK         0.1144 
    124 H124      -84.0536   22.3224  -73.0342 H         1 UNK         0.0793 
    125 H125      -82.9520   22.1755  -74.3941 H         1 UNK         0.0793 
    126 H126      -84.5245   22.9469  -74.6009 H         1 UNK         0.0793 
    127 H127      -82.1384   24.4211  -71.6682 H         1 UNK         0.2896 
@<TRIPOS>BOND
     1    1    2 1    
     2    1   67 1    
     3    1   68 1    
     4    1   69 1    
     5    2    3 2    
     6    2    4 am   BACKBONE|DICT|INTERRES
     7    4    5 1    
     8    4   70 1    
     9    5    6 1    
    10    5   65 1    
    11    5   71 1    
    12    6    7 1    
    13    6   72 1    
    14    6   73 1    
    15    7    8 1    
    16    8    9 1    
    17    8   74 1    
    18    8   75 1    
    19    9   10 ar   
    20    9   14 ar   
    21   10   11 ar   
    22   10   76 1    
    23   11   12 ar   
    24   11   48 1    
    25   12   13 ar   
    26   12   77 1    
    27   13   14 ar   
    28   13   15 1    
    29   14   78 1    
    30   15   16 1    
    31   15   79 1    
    32   15   80 1    
    33   16   17 1    
    34   17   18 1    
    35   17   81 1    
    36   17   82 1    
    37   18   19 1    
    38   18   22 1    
    39   18   83 1    
    40   19   20 am   BACKBONE|DICT|INTERRES
    41   19   21 2    
    42   20   84 1    
    43   20   85 1    
    44   22   23 am   BACKBONE|DICT|INTERRES
    45   22   86 1    
    46   23   24 2    
    47   23   25 1    
    48   25   26 1    
    49   25   27 1    
    50   25   87 1    
    51   26   88 1    
    52   26   89 1    
    53   26   90 1    
    54   27   28 am   BACKBONE|DICT|INTERRES
    55   27   91 1    
    56   28   29 2    
    57   28   30 1    
    58   30   31 1    
    59   30   32 1    
    60   30   92 1    
    61   31   93 1    
    62   31   94 1    
    63   31   95 1    
    64   32   33 am   BACKBONE|DICT|INTERRES
    65   32   96 1    
    66   33   34 2    
    67   33   35 1    
    68   35   36 1    
    69   35   37 1    
    70   35   97 1    
    71   36   98 1    
    72   36   99 1    
    73   36  100 1    
    74   37   38 am   BACKBONE|DICT|INTERRES
    75   37  101 1    
    76   38   39 2    
    77   38   40 1    
    78   40   41 1    
    79   40   42 1    
    80   40  102 1    
    81   41  103 1    
    82   41  104 1    
    83   41  105 1    
    84   42   43 am   BACKBONE|DICT|INTERRES
    85   42  106 1    
    86   43   44 2    
    87   43   45 1    
    88   45   46 1    
    89   45   49 1    
    90   45  107 1    
    91   46   47 1    
    92   46  108 1    
    93   46  109 1    
    94   47   48 1    
    95   48  110 1    
    96   48  111 1    
    97   49   50 am   BACKBONE|DICT|INTERRES
    98   49  112 1    
    99   50   51 2    
   100   50   52 1    
   101   52   53 1    
   102   52   54 1    
   103   52  113 1    
   104   53  114 1    
   105   53  115 1    
   106   53  116 1    
   107   54   55 am   BACKBONE|DICT|INTERRES
   108   54  117 1    
   109   55   56 2    
   110   55   57 1    
   111   57   58 1    
   112   57   59 1    
   113   57  118 1    
   114   58  119 1    
   115   58  120 1    
   116   58  121 1    
   117   59   60 am   BACKBONE|DICT|INTERRES
   118   59  122 1    
   119   60   61 2    
   120   60   62 1    
   121   62   63 1    
   122   62   64 1    
   123   62  123 1    
   124   63  124 1    
   125   63  125 1    
   126   63  126 1    
   127   64   65 am   BACKBONE|DICT|INTERRES
   128   64  127 1    
   129   65   66 2    
@<TRIPOS>SUBSTRUCTURE
     1 UNK         1 GROUP             0       ****    0 ROOT    
