@<TRIPOS>MOLECULE
3R135
127   129    1
SMALL
USER_CHARGES


@<TRIPOS>ATOM
      1 CA        -81.1700   31.1800  -75.7731 C.3       0 UNK        -0.1998 
      2 C         -80.7902   29.9139  -75.0200 C.2       0 UNK         0.4909 
      3 O         -79.7616   29.3111  -75.3208 O.2       0 UNK        -0.5240 
      4 N         -81.6096   29.5146  -74.0402 N.am      1 UNK        -0.4739 
      5 CA        -81.4167   28.3138  -73.2178 C.3       1 UNK         0.0864 
      6 C6        -82.3102   28.3365  -71.9512 C.3       11 UNK        -0.0881 
      7 S7        -82.0893   29.8483  -70.9532 S.3       11 UNK        -0.2682 
      8 C8        -80.9701   29.2727  -69.6365 C.3       11 UNK         0.0289 
      9 C9        -79.5717   28.9346  -70.1422 C.ar      11 UNK        -0.0687 
     10 C10       -79.0177   27.6766  -69.8859 C.ar      11 UNK        -0.0823 
     11 C11       -77.7082   27.3769  -70.2764 C.ar      11 UNK        -0.0830 
     12 C12       -76.9540   28.3561  -70.9359 C.ar      11 UNK        -0.1021 
     13 C13       -77.5020   29.6096  -71.2219 C.ar      11 UNK        -0.0753 
     14 C14       -78.8096   29.8939  -70.8169 C.ar      11 UNK        -0.0933 
     15 C15       -76.6760   30.6671  -71.9427 C.3       11 UNK         0.0166 
     16 S16       -76.3602   30.2106  -73.6770 S.3       11 UNK        -0.2615 
     17 C17       -74.6631   29.5352  -73.5993 C.3       11 UNK        -0.0865 
     18 CA        -73.6615   30.4025  -74.4056 C.3       10 UNK         0.0862 
     19 C         -73.1627   31.6198  -73.5774 C.2       10 UNK         0.5551 
     20 N         -73.8412   32.7551  -73.6687 N.am      10 UNK        -0.7319 
     21 O         -72.1917   31.5312  -72.8279 O.2       10 UNK        -0.5018 
     22 N         -72.5529   29.5946  -74.9366 N.am      10 UNK        -0.4509 
     23 C         -71.7056   30.0084  -75.8868 C.2       10 UNK         0.4899 
     24 O         -71.8284   31.0799  -76.4821 O.2       10 UNK        -0.4839 
     25 CA        -70.5160   29.1014  -76.2609 C.3       9 UNK         0.0222 
     26 CB        -69.2592   29.4938  -75.4593 C.3       9 UNK        -0.1966 
     27 N         -70.7603   27.6528  -76.1964 N.am      9 UNK        -0.4218 
     28 C         -70.9930   26.8759  -75.1300 C.2       9 UNK         0.5020 
     29 O         -71.0925   27.3015  -73.9777 O.2       9 UNK        -0.5274 
     30 CA        -71.1688   25.3755  -75.4250 C.3       8 UNK         0.0270 
     31 CB        -71.3617   24.5289  -74.1521 C.3       8 UNK        -0.1976 
     32 N         -72.3090   25.1711  -76.3190 N.am      8 UNK        -0.4313 
     33 C         -72.2528   25.1947  -77.6577 C.2       8 UNK         0.5041 
     34 O         -71.2057   25.3642  -78.2840 O.2       8 UNK        -0.5577 
     35 CA        -73.5748   25.0442  -78.4346 C.3       7 UNK         0.0284 
     36 CB        -73.8183   23.5706  -78.7966 C.3       7 UNK        -0.1958 
     37 N         -74.7402   25.5623  -77.7154 N.am      7 UNK        -0.4454 
     38 C         -74.9279   26.8463  -77.3771 C.2       7 UNK         0.5089 
     39 O         -74.1804   27.7636  -77.7166 O.2       7 UNK        -0.5125 
     40 CA        -76.1339   27.1474  -76.4706 C.3       6 UNK         0.0408 
     41 CB        -77.3918   27.3850  -77.3184 C.3       6 UNK        -0.1791 
     42 N         -76.4014   26.0956  -75.4819 N.am      6 UNK        -0.4762 
     43 C         -75.5346   25.6386  -74.5643 C.2       6 UNK         0.5007 
     44 O         -74.3871   26.0601  -74.4425 O.2       6 UNK        -0.5032 
     45 CA        -75.9985   24.4621  -73.6881 C.3       5 UNK         0.0783 
     46 C46       -76.8781   24.9228  -72.4992 C.3       11 UNK        -0.0857 
     47 S47       -75.8547   25.3894  -71.0674 S.3       11 UNK        -0.2512 
     48 C48       -77.1194   26.0143  -69.9108 C.3       11 UNK         0.0225 
     49 N         -76.6624   23.4524  -74.5116 N.am      5 UNK        -0.4615 
     50 C         -76.0154   22.5390  -75.2485 C.2       4 UNK         0.5053 
     51 O         -74.7920   22.4052  -75.2508 O.2       4 UNK        -0.5105 
     52 CA        -76.8705   21.6256  -76.1449 C.3       4 UNK         0.0263 
     53 CB        -77.2082   20.3181  -75.4111 C.3       4 UNK        -0.1981 
     54 N         -78.1101   22.2597  -76.6004 N.am      4 UNK        -0.4224 
     55 C         -78.1629   23.2950  -77.4501 C.2       3 UNK         0.4895 
     56 O         -77.1718   23.8006  -77.9773 O.2       3 UNK        -0.5091 
     57 CA        -79.5543   23.9000  -77.7108 C.3       3 UNK         0.0250 
     58 CB        -80.2749   23.1308  -78.8294 C.3       3 UNK        -0.1996 
     59 N         -80.4164   23.9657  -76.5213 N.am      3 UNK        -0.4254 
     60 C         -80.1050   24.6106  -75.3881 C.2       2 UNK         0.5004 
     61 O         -79.0144   25.1454  -75.1835 O.2       2 UNK        -0.5226 
     62 CA        -81.1532   24.6198  -74.2676 C.3       2 UNK         0.0269 
     63 CB        -80.8730   23.4876  -73.2661 C.3       2 UNK        -0.1926 
     64 N         -81.1151   25.9032  -73.5629 N.am      2 UNK        -0.4687 
     65 C         -81.6745   27.0265  -74.0306 C.2       1 UNK         0.5165 
     66 O         -82.3996   27.0565  -75.0299 O.2       1 UNK        -0.5079 
     67 H67       -80.3769   31.9217  -75.6817 H         1 UNK         0.0900 
     68 H68       -82.0917   31.6201  -75.3928 H         1 UNK         0.0900 
     69 H69       -81.3102   30.9587  -76.8307 H         1 UNK         0.0900 
     70 H70       -82.4450   30.0451  -73.8406 H         1 UNK         0.2959 
     71 H71       -80.3700   28.2984  -72.9041 H         1 UNK         0.1079 
     72 H72       -82.1148   27.4648  -71.3236 H         1 UNK         0.0837 
     73 H73       -83.3645   28.2753  -72.2287 H         1 UNK         0.0837 
     74 H74       -80.8851   30.0597  -68.8860 H         1 UNK         0.0685 
     75 H75       -81.4244   28.4188  -69.1315 H         1 UNK         0.0685 
     76 H76       -79.5981   26.9364  -69.3517 H         1 UNK         0.1434 
     77 H77       -75.9349   28.1498  -71.2291 H         1 UNK         0.1329 
     78 H78       -79.2359   30.8676  -71.0161 H         1 UNK         0.1335 
     79 H79       -77.1996   31.6242  -71.9364 H         1 UNK         0.0680 
     80 H80       -75.7394   30.8364  -71.4100 H         1 UNK         0.0680 
     81 H81       -74.3329   29.3938  -72.5688 H         1 UNK         0.1032 
     82 H82       -74.7103   28.5340  -74.0212 H         1 UNK         0.1032 
     83 H83       -74.1858   30.7888  -75.2828 H         1 UNK         0.0461 
     84 H84       -74.6541   32.8241  -74.2611 H         1 UNK         0.3453 
     85 H85       -73.5419   33.5529  -73.1306 H         1 UNK         0.3453 
     86 H86       -72.3266   28.7337  -74.4482 H         1 UNK         0.2984 
     87 H87       -70.3024   29.3021  -77.3120 H         1 UNK         0.0554 
     88 H88       -68.3894   28.9179  -75.7749 H         1 UNK         0.0847 
     89 H89       -69.3943   29.3401  -74.3881 H         1 UNK         0.0847 
     90 H90       -69.0194   30.5480  -75.6044 H         1 UNK         0.0847 
     91 H91       -70.7606   27.1799  -77.0938 H         1 UNK         0.3141 
     92 H92       -70.2545   25.0286  -75.9114 H         1 UNK         0.0743 
     93 H93       -72.2365   24.8409  -73.5812 H         1 UNK         0.0784 
     94 H94       -71.4806   23.4724  -74.3932 H         1 UNK         0.0784 
     95 H95       -70.4971   24.6168  -73.4931 H         1 UNK         0.0784 
     96 H96       -73.2176   25.1551  -75.8681 H         1 UNK         0.3213 
     97 H97       -73.4772   25.6142  -79.3609 H         1 UNK         0.0855 
     98 H98       -73.9487   22.9533  -77.9068 H         1 UNK         0.0814 
     99 H99       -72.9770   23.1618  -79.3580 H         1 UNK         0.0814 
    100 H100      -74.7078   23.4558  -79.4165 H         1 UNK         0.0814 
    101 H101      -75.4621   24.8935  -77.4672 H         1 UNK         0.3105 
    102 H102      -75.9203   28.0657  -75.9236 H         1 UNK         0.0547 
    103 H103      -77.6224   26.5259  -77.9474 H         1 UNK         0.0837 
    104 H104      -78.2613   27.5848  -76.6925 H         1 UNK         0.0837 
    105 H105      -77.2599   28.2449  -77.9761 H         1 UNK         0.0837 
    106 H106      -77.3454   25.7095  -75.4783 H         1 UNK         0.3020 
    107 H107      -75.0961   23.9983  -73.2808 H         1 UNK         0.1245 
    108 H108      -77.5424   25.7454  -72.7737 H         1 UNK         0.0781 
    109 H109      -77.5254   24.1081  -72.1714 H         1 UNK         0.0781 
    110 H110      -77.9104   25.2675  -69.8257 H         1 UNK         0.0836 
    111 H111      -76.6672   26.0957  -68.9217 H         1 UNK         0.0836 
    112 H112      -77.6605   23.5623  -74.6307 H         1 UNK         0.3022 
    113 H113      -76.2738   21.3802  -77.0264 H         1 UNK         0.0747 
    114 H114      -77.7463   19.6262  -76.0594 H         1 UNK         0.0793 
    115 H115      -76.3003   19.8106  -75.0819 H         1 UNK         0.0793 
    116 H116      -77.8206   20.4967  -74.5262 H         1 UNK         0.0793 
    117 H117      -78.9753   21.9072  -76.2176 H         1 UNK         0.3047 
    118 H118      -79.4015   24.9252  -78.0527 H         1 UNK         0.0822 
    119 H119      -81.2116   23.6157  -79.1053 H         1 UNK         0.0807 
    120 H120      -80.5007   22.1047  -78.5364 H         1 UNK         0.0807 
    121 H121      -79.6601   23.0849  -79.7297 H         1 UNK         0.0807 
    122 H122      -81.3263   23.5343  -76.6023 H         1 UNK         0.2946 
    123 H123      -82.1460   24.4737  -74.6999 H         1 UNK         0.1144 
    124 H124      -81.6134   23.4754  -72.4660 H         1 UNK         0.0793 
    125 H125      -79.8880   23.5842  -72.8081 H         1 UNK         0.0793 
    126 H126      -80.9113   22.5131  -73.7549 H         1 UNK         0.0793 
    127 H127      -80.5102   25.9544  -72.7565 H         1 UNK         0.2896 
@<TRIPOS>BOND
     1    1    2 1    
     2    1   67 1    
     3    1   68 1    
     4    1   69 1    
     5    2    3 2    
     6    2    4 am   BACKBONE|DICT|INTERRES
     7    4    5 1    
     8    4   70 1    
     9    5    6 1    
    10    5   65 1    
    11    5   71 1    
    12    6    7 1    
    13    6   72 1    
    14    6   73 1    
    15    7    8 1    
    16    8    9 1    
    17    8   74 1    
    18    8   75 1    
    19    9   10 ar   
    20    9   14 ar   
    21   10   11 ar   
    22   10   76 1    
    23   11   12 ar   
    24   11   48 1    
    25   12   13 ar   
    26   12   77 1    
    27   13   14 ar   
    28   13   15 1    
    29   14   78 1    
    30   15   16 1    
    31   15   79 1    
    32   15   80 1    
    33   16   17 1    
    34   17   18 1    
    35   17   81 1    
    36   17   82 1    
    37   18   19 1    
    38   18   22 1    
    39   18   83 1    
    40   19   20 am   BACKBONE|DICT|INTERRES
    41   19   21 2    
    42   20   84 1    
    43   20   85 1    
    44   22   23 am   BACKBONE|DICT|INTERRES
    45   22   86 1    
    46   23   24 2    
    47   23   25 1    
    48   25   26 1    
    49   25   27 1    
    50   25   87 1    
    51   26   88 1    
    52   26   89 1    
    53   26   90 1    
    54   27   28 am   BACKBONE|DICT|INTERRES
    55   27   91 1    
    56   28   29 2    
    57   28   30 1    
    58   30   31 1    
    59   30   32 1    
    60   30   92 1    
    61   31   93 1    
    62   31   94 1    
    63   31   95 1    
    64   32   33 am   BACKBONE|DICT|INTERRES
    65   32   96 1    
    66   33   34 2    
    67   33   35 1    
    68   35   36 1    
    69   35   37 1    
    70   35   97 1    
    71   36   98 1    
    72   36   99 1    
    73   36  100 1    
    74   37   38 am   BACKBONE|DICT|INTERRES
    75   37  101 1    
    76   38   39 2    
    77   38   40 1    
    78   40   41 1    
    79   40   42 1    
    80   40  102 1    
    81   41  103 1    
    82   41  104 1    
    83   41  105 1    
    84   42   43 am   BACKBONE|DICT|INTERRES
    85   42  106 1    
    86   43   44 2    
    87   43   45 1    
    88   45   46 1    
    89   45   49 1    
    90   45  107 1    
    91   46   47 1    
    92   46  108 1    
    93   46  109 1    
    94   47   48 1    
    95   48  110 1    
    96   48  111 1    
    97   49   50 am   BACKBONE|DICT|INTERRES
    98   49  112 1    
    99   50   51 2    
   100   50   52 1    
   101   52   53 1    
   102   52   54 1    
   103   52  113 1    
   104   53  114 1    
   105   53  115 1    
   106   53  116 1    
   107   54   55 am   BACKBONE|DICT|INTERRES
   108   54  117 1    
   109   55   56 2    
   110   55   57 1    
   111   57   58 1    
   112   57   59 1    
   113   57  118 1    
   114   58  119 1    
   115   58  120 1    
   116   58  121 1    
   117   59   60 am   BACKBONE|DICT|INTERRES
   118   59  122 1    
   119   60   61 2    
   120   60   62 1    
   121   62   63 1    
   122   62   64 1    
   123   62  123 1    
   124   63  124 1    
   125   63  125 1    
   126   63  126 1    
   127   64   65 am   BACKBONE|DICT|INTERRES
   128   64  127 1    
   129   65   66 2    
@<TRIPOS>SUBSTRUCTURE
     1 UNK         1 GROUP             0       ****    0 ROOT    
