@<TRIPOS>MOLECULE
3R135
127   129    1
SMALL
USER_CHARGES


@<TRIPOS>ATOM
      1 CA        -83.8150   27.3545  -73.3484 C.3       0 UNK        -0.1998 
      2 C         -82.4485   27.0954  -72.7213 C.2       0 UNK         0.4909 
      3 O         -82.3665   26.3845  -71.7226 O.2       0 UNK        -0.5240 
      4 N         -81.3483   27.6398  -73.2598 N.am      1 UNK        -0.4739 
      5 CA        -81.2714   28.4928  -74.4567 C.3       1 UNK         0.0864 
      6 C6        -80.0905   29.4971  -74.3721 C.3       11 UNK        -0.0881 
      7 S7        -80.3923   30.7520  -73.0747 S.3       11 UNK        -0.2682 
      8 C8        -78.7142   31.1125  -72.4372 C.3       11 UNK         0.0289 
      9 C9        -78.0546   30.0210  -71.5883 C.ar      11 UNK        -0.0687 
     10 C10       -78.7213   28.8534  -71.1989 C.ar      11 UNK        -0.0823 
     11 C11       -78.0482   27.8361  -70.5171 C.ar      11 UNK        -0.0830 
     12 C12       -76.7233   28.0312  -70.1231 C.ar      11 UNK        -0.1021 
     13 C13       -76.0546   29.2099  -70.4623 C.ar      11 UNK        -0.0753 
     14 C14       -76.7200   30.1918  -71.2045 C.ar      11 UNK        -0.0933 
     15 C15       -74.6007   29.4019  -70.0641 C.3       11 UNK         0.0166 
     16 S16       -73.5200   28.3588  -71.0864 S.3       11 UNK        -0.2615 
     17 C17       -72.0002   29.3691  -71.1451 C.3       11 UNK        -0.0865 
     18 CA        -72.0056   30.4334  -72.2786 C.3       10 UNK         0.0862 
     19 C         -70.6162   31.1298  -72.3635 C.2       10 UNK         0.5551 
     20 N         -69.8056   30.8656  -73.3819 N.am      10 UNK        -0.7319 
     21 O         -70.2709   31.9172  -71.4862 O.2       10 UNK        -0.5018 
     22 N         -72.4951   29.8692  -73.5441 N.am      10 UNK        -0.4509 
     23 C         -72.7946   30.5390  -74.6629 C.2       10 UNK         0.4899 
     24 O         -72.7401   31.7656  -74.7599 O.2       10 UNK        -0.4839 
     25 CA        -73.2500   29.6968  -75.8742 C.3       9 UNK         0.0222 
     26 CB        -72.6846   30.2344  -77.2051 C.3       9 UNK        -0.1966 
     27 N         -72.9892   28.2554  -75.7391 N.am      9 UNK        -0.4218 
     28 C         -71.7988   27.6435  -75.6227 C.2       9 UNK         0.5020 
     29 O         -70.7159   28.2309  -75.6127 O.2       9 UNK        -0.5274 
     30 CA        -71.8266   26.1169  -75.4469 C.3       8 UNK         0.0270 
     31 CB        -72.1299   25.7537  -73.9834 C.3       8 UNK        -0.1976 
     32 N         -72.7978   25.4678  -76.3301 N.am      8 UNK        -0.4313 
     33 C         -72.6722   25.3918  -77.6634 C.2       8 UNK         0.5041 
     34 O         -71.6803   25.7786  -78.2831 O.2       8 UNK        -0.5577 
     35 CA        -73.8598   24.8031  -78.4435 C.3       7 UNK         0.0284 
     36 CB        -73.8325   23.2671  -78.4041 C.3       7 UNK        -0.1958 
     37 N         -75.1518   25.2927  -77.9567 N.am      7 UNK        -0.4454 
     38 C         -75.5599   26.5678  -78.0348 C.2       7 UNK         0.5089 
     39 O         -74.9181   27.4634  -78.5831 O.2       7 UNK        -0.5125 
     40 CA        -76.9041   26.9112  -77.3724 C.3       6 UNK         0.0408 
     41 CB        -78.0673   26.6683  -78.3439 C.3       6 UNK        -0.1791 
     42 N         -77.1251   26.1767  -76.1231 N.am      6 UNK        -0.4762 
     43 C         -76.4405   26.4056  -74.9927 C.2       6 UNK         0.5007 
     44 O         -75.5781   27.2778  -74.8844 O.2       6 UNK        -0.5032 
     45 CA        -76.7275   25.4718  -73.8007 C.3       5 UNK         0.0783 
     46 C46       -77.9894   25.9192  -73.0242 C.3       11 UNK        -0.0857 
     47 S47       -78.0474   25.1737  -71.3531 S.3       11 UNK        -0.2512 
     48 C48       -78.7326   26.4963  -70.2878 C.3       11 UNK         0.0225 
     49 N         -76.8117   24.0721  -74.2286 N.am      5 UNK        -0.4615 
     50 C         -75.7799   23.3698  -74.7164 C.2       4 UNK         0.5053 
     51 O         -74.6427   23.8235  -74.8380 O.2       4 UNK        -0.5105 
     52 CA        -76.0663   21.9342  -75.1890 C.3       4 UNK         0.0263 
     53 CB        -75.9309   20.9485  -74.0179 C.3       4 UNK        -0.1981 
     54 N         -77.3784   21.7667  -75.8203 N.am      4 UNK        -0.4224 
     55 C         -77.8086   22.4288  -76.9039 C.2       3 UNK         0.4895 
     56 O         -77.1369   23.2725  -77.4994 O.2       3 UNK        -0.5091 
     57 CA        -79.2369   22.1315  -77.4021 C.3       3 UNK         0.0250 
     58 CB        -79.9697   21.0222  -76.6115 C.3       3 UNK        -0.1996 
     59 N         -80.0601   23.3467  -77.4532 N.am      3 UNK        -0.4254 
     60 C         -80.3094   24.1842  -76.4363 C.2       2 UNK         0.5004 
     61 O         -79.8495   24.0484  -75.2990 O.2       2 UNK        -0.5226 
     62 CA        -81.2360   25.3672  -76.7416 C.3       2 UNK         0.0269 
     63 CB        -82.6963   24.9011  -76.8868 C.3       2 UNK        -0.1926 
     64 N         -81.1527   26.3345  -75.6501 N.am      2 UNK        -0.4687 
     65 C         -81.2447   27.6651  -75.7630 C.2       1 UNK         0.5165 
     66 O         -81.3505   28.2440  -76.8442 O.2       1 UNK        -0.5079 
     67 H67       -83.8311   27.0629  -74.3982 H         1 UNK         0.0900 
     68 H68       -84.5847   26.7777  -72.8354 H         1 UNK         0.0900 
     69 H69       -84.0825   28.4079  -73.2681 H         1 UNK         0.0900 
     70 H70       -80.4628   27.4366  -72.8237 H         1 UNK         0.2959 
     71 H71       -82.1829   29.0899  -74.5213 H         1 UNK         0.1079 
     72 H72       -79.1485   28.9780  -74.1872 H         1 UNK         0.0837 
     73 H73       -79.9631   30.0325  -75.3152 H         1 UNK         0.0837 
     74 H74       -78.7739   32.0208  -71.8354 H         1 UNK         0.0685 
     75 H75       -78.0681   31.3474  -73.2851 H         1 UNK         0.0685 
     76 H76       -79.7549   28.7040  -71.4642 H         1 UNK         0.1434 
     77 H77       -76.1973   27.2474  -69.5944 H         1 UNK         0.1329 
     78 H78       -76.1926   31.0904  -71.4952 H         1 UNK         0.1335 
     79 H79       -74.4627   29.1476  -69.0122 H         1 UNK         0.0680 
     80 H80       -74.3171   30.4500  -70.1706 H         1 UNK         0.0680 
     81 H81       -71.1632   28.6807  -71.2799 H         1 UNK         0.1032 
     82 H82       -71.8430   29.8418  -70.1735 H         1 UNK         0.1032 
     83 H83       -72.7190   31.2102  -71.9974 H         1 UNK         0.0461 
     84 H84       -68.9072   31.3192  -73.4329 H         1 UNK         0.3453 
     85 H85       -70.0859   30.2114  -74.0983 H         1 UNK         0.3453 
     86 H86       -72.6068   28.8670  -73.5533 H         1 UNK         0.2984 
     87 H87       -74.3358   29.7947  -75.9150 H         1 UNK         0.0554 
     88 H88       -73.0047   31.2619  -77.3817 H         1 UNK         0.0847 
     89 H89       -73.0318   29.6392  -78.0500 H         1 UNK         0.0847 
     90 H90       -71.5944   30.2280  -77.2151 H         1 UNK         0.0847 
     91 H91       -73.8278   27.6869  -75.6494 H         1 UNK         0.3141 
     92 H92       -70.8343   25.7340  -75.6946 H         1 UNK         0.0743 
     93 H93       -71.4136   26.2212  -73.3062 H         1 UNK         0.0784 
     94 H94       -73.1263   26.0798  -73.6815 H         1 UNK         0.0784 
     95 H95       -72.0712   24.6768  -73.8237 H         1 UNK         0.0784 
     96 H96       -73.6095   25.0432  -75.8865 H         1 UNK         0.3213 
     97 H97       -73.7610   25.1165  -79.4850 H         1 UNK         0.0855 
     98 H98       -73.8947   22.8889  -77.3843 H         1 UNK         0.0814 
     99 H99       -72.9070   22.8843  -78.8360 H         1 UNK         0.0814 
    100 H100      -74.6582   22.8387  -78.9726 H         1 UNK         0.0814 
    101 H101      -75.7909   24.6032  -77.5676 H         1 UNK         0.3105 
    102 H102      -76.8870   27.9779  -77.1374 H         1 UNK         0.0547 
    103 H103      -78.9932   27.0849  -77.9514 H         1 UNK         0.0837 
    104 H104      -78.2196   25.6071  -78.5426 H         1 UNK         0.0837 
    105 H105      -77.8831   27.1555  -79.3026 H         1 UNK         0.0837 
    106 H106      -77.7665   25.3958  -76.1486 H         1 UNK         0.3020 
    107 H107      -75.8676   25.5632  -73.1320 H         1 UNK         0.1245 
    108 H108      -78.9000   25.6530  -73.5597 H         1 UNK         0.0781 
    109 H109      -78.0004   27.0042  -72.9489 H         1 UNK         0.0781 
    110 H110      -78.6195   26.2050  -69.2427 H         1 UNK         0.0836 
    111 H111      -79.8063   26.5721  -70.4666 H         1 UNK         0.0836 
    112 H112      -77.7289   23.6464  -74.1991 H         1 UNK         0.3022 
    113 H113      -75.3127   21.6774  -75.9352 H         1 UNK         0.0747 
    114 H114      -76.0338   19.9162  -74.3528 H         1 UNK         0.0793 
    115 H115      -74.9514   21.0374  -73.5455 H         1 UNK         0.0793 
    116 H116      -76.6816   21.1299  -73.2475 H         1 UNK         0.0793 
    117 H117      -78.0095   21.1092  -75.3859 H         1 UNK         0.3047 
    118 H118      -79.1274   21.7864  -78.4313 H         1 UNK         0.0822 
    119 H119      -80.9493   20.8204  -77.0451 H         1 UNK         0.0807 
    120 H120      -80.1271   21.2929  -75.5666 H         1 UNK         0.0807 
    121 H121      -79.4161   20.0825  -76.6372 H         1 UNK         0.0807 
    122 H122      -80.4610   23.5567  -78.3567 H         1 UNK         0.2946 
    123 H123      -80.9112   25.8258  -77.6773 H         1 UNK         0.1144 
    124 H124      -83.0577   24.4220  -75.9758 H         1 UNK         0.0793 
    125 H125      -82.8056   24.1822  -77.6998 H         1 UNK         0.0793 
    126 H126      -83.3585   25.7383  -77.1084 H         1 UNK         0.0793 
    127 H127      -81.0016   25.9247  -74.7374 H         1 UNK         0.2896 
@<TRIPOS>BOND
     1    1    2 1    
     2    1   67 1    
     3    1   68 1    
     4    1   69 1    
     5    2    3 2    
     6    2    4 am   BACKBONE|DICT|INTERRES
     7    4    5 1    
     8    4   70 1    
     9    5    6 1    
    10    5   65 1    
    11    5   71 1    
    12    6    7 1    
    13    6   72 1    
    14    6   73 1    
    15    7    8 1    
    16    8    9 1    
    17    8   74 1    
    18    8   75 1    
    19    9   10 ar   
    20    9   14 ar   
    21   10   11 ar   
    22   10   76 1    
    23   11   12 ar   
    24   11   48 1    
    25   12   13 ar   
    26   12   77 1    
    27   13   14 ar   
    28   13   15 1    
    29   14   78 1    
    30   15   16 1    
    31   15   79 1    
    32   15   80 1    
    33   16   17 1    
    34   17   18 1    
    35   17   81 1    
    36   17   82 1    
    37   18   19 1    
    38   18   22 1    
    39   18   83 1    
    40   19   20 am   BACKBONE|DICT|INTERRES
    41   19   21 2    
    42   20   84 1    
    43   20   85 1    
    44   22   23 am   BACKBONE|DICT|INTERRES
    45   22   86 1    
    46   23   24 2    
    47   23   25 1    
    48   25   26 1    
    49   25   27 1    
    50   25   87 1    
    51   26   88 1    
    52   26   89 1    
    53   26   90 1    
    54   27   28 am   BACKBONE|DICT|INTERRES
    55   27   91 1    
    56   28   29 2    
    57   28   30 1    
    58   30   31 1    
    59   30   32 1    
    60   30   92 1    
    61   31   93 1    
    62   31   94 1    
    63   31   95 1    
    64   32   33 am   BACKBONE|DICT|INTERRES
    65   32   96 1    
    66   33   34 2    
    67   33   35 1    
    68   35   36 1    
    69   35   37 1    
    70   35   97 1    
    71   36   98 1    
    72   36   99 1    
    73   36  100 1    
    74   37   38 am   BACKBONE|DICT|INTERRES
    75   37  101 1    
    76   38   39 2    
    77   38   40 1    
    78   40   41 1    
    79   40   42 1    
    80   40  102 1    
    81   41  103 1    
    82   41  104 1    
    83   41  105 1    
    84   42   43 am   BACKBONE|DICT|INTERRES
    85   42  106 1    
    86   43   44 2    
    87   43   45 1    
    88   45   46 1    
    89   45   49 1    
    90   45  107 1    
    91   46   47 1    
    92   46  108 1    
    93   46  109 1    
    94   47   48 1    
    95   48  110 1    
    96   48  111 1    
    97   49   50 am   BACKBONE|DICT|INTERRES
    98   49  112 1    
    99   50   51 2    
   100   50   52 1    
   101   52   53 1    
   102   52   54 1    
   103   52  113 1    
   104   53  114 1    
   105   53  115 1    
   106   53  116 1    
   107   54   55 am   BACKBONE|DICT|INTERRES
   108   54  117 1    
   109   55   56 2    
   110   55   57 1    
   111   57   58 1    
   112   57   59 1    
   113   57  118 1    
   114   58  119 1    
   115   58  120 1    
   116   58  121 1    
   117   59   60 am   BACKBONE|DICT|INTERRES
   118   59  122 1    
   119   60   61 2    
   120   60   62 1    
   121   62   63 1    
   122   62   64 1    
   123   62  123 1    
   124   63  124 1    
   125   63  125 1    
   126   63  126 1    
   127   64   65 am   BACKBONE|DICT|INTERRES
   128   64  127 1    
   129   65   66 2    
@<TRIPOS>SUBSTRUCTURE
     1 UNK         1 GROUP             0       ****    0 ROOT    
