@<TRIPOS>MOLECULE
3R135
127   129    1
SMALL
USER_CHARGES


@<TRIPOS>ATOM
      1 CA        -77.3294   25.6677  -72.3873 C.3       0 UNK        -0.1998 
      2 C         -78.7315   25.2232  -72.0041 C.2       0 UNK         0.4909 
      3 O         -79.0305   24.0294  -72.0278 O.2       0 UNK        -0.5240 
      4 N         -79.5953   26.1772  -71.6415 N.am      1 UNK        -0.4739 
      5 CA        -80.9591   25.9505  -71.1490 C.3       1 UNK         0.0864 
      6 C6        -81.4285   27.0452  -70.1432 C.3       11 UNK        -0.0881 
      7 S7        -80.1516   27.5832  -68.9490 S.3       11 UNK        -0.2682 
      8 C8        -79.8238   29.2909  -69.5077 C.3       11 UNK         0.0289 
      9 C9        -79.0677   29.3398  -70.8308 C.ar      11 UNK        -0.0687 
     10 C10       -79.7611   29.3385  -72.0453 C.ar      11 UNK        -0.0823 
     11 C11       -79.0733   29.3649  -73.2612 C.ar      11 UNK        -0.0830 
     12 C12       -77.6778   29.4526  -73.2598 C.ar      11 UNK        -0.1021 
     13 C13       -76.9727   29.4746  -72.0524 C.ar      11 UNK        -0.0753 
     14 C14       -77.6715   29.4046  -70.8426 C.ar      11 UNK        -0.0933 
     15 C15       -75.4569   29.5814  -72.0487 C.3       11 UNK         0.0166 
     16 S16       -74.9411   31.3243  -72.0209 S.3       11 UNK        -0.2615 
     17 C17       -73.1758   31.1857  -71.5815 C.3       11 UNK        -0.0865 
     18 CA        -72.2332   31.5542  -72.7550 C.3       10 UNK         0.0862 
     19 C         -70.7711   31.6857  -72.2438 C.2       10 UNK         0.5551 
     20 N         -70.2917   32.9044  -72.0364 N.am      10 UNK        -0.7319 
     21 O         -70.0926   30.6944  -71.9843 O.2       10 UNK        -0.5018 
     22 N         -72.3652   30.5997  -73.8662 N.am      10 UNK        -0.4509 
     23 C         -71.7477   30.6925  -75.0512 C.2       10 UNK         0.4899 
     24 O         -71.0535   31.6555  -75.3814 O.2       10 UNK        -0.4839 
     25 CA        -71.9655   29.5410  -76.0569 C.3       9 UNK         0.0222 
     26 CB        -70.7268   29.2935  -76.9434 C.3       9 UNK        -0.1966 
     27 N         -72.4354   28.2773  -75.4718 N.am      9 UNK        -0.4218 
     28 C         -71.8088   27.5054  -74.5688 C.2       9 UNK         0.5020 
     29 O         -70.7439   27.7961  -74.0246 O.2       9 UNK        -0.5274 
     30 CA        -72.4818   26.1641  -74.2325 C.3       8 UNK         0.0270 
     31 CB        -73.7371   26.3693  -73.3669 C.3       8 UNK        -0.1976 
     32 N         -72.8335   25.4059  -75.4337 N.am      8 UNK        -0.4313 
     33 C         -71.9572   24.9018  -76.3150 C.2       8 UNK         0.5041 
     34 O         -70.7342   24.9467  -76.1771 O.2       8 UNK        -0.5577 
     35 CA        -72.5478   24.2493  -77.5739 C.3       7 UNK         0.0284 
     36 CB        -72.9869   22.8021  -77.2929 C.3       7 UNK        -0.1958 
     37 N         -73.6779   25.0227  -78.0916 N.am      7 UNK        -0.4454 
     38 C         -73.5554   26.1282  -78.8396 C.2       7 UNK         0.5089 
     39 O         -72.4778   26.5680  -79.2403 O.2       7 UNK        -0.5125 
     40 CA        -74.8507   26.8734  -79.2106 C.3       6 UNK         0.0408 
     41 CB        -75.3513   26.4204  -80.5911 C.3       6 UNK        -0.1791 
     42 N         -75.9268   26.7064  -78.2299 N.am      6 UNK        -0.4762 
     43 C         -75.9312   27.2498  -77.0037 C.2       6 UNK         0.5007 
     44 O         -75.0211   27.9479  -76.5575 O.2       6 UNK        -0.5032 
     45 CA        -77.1378   26.9145  -76.1046 C.3       5 UNK         0.0783 
     46 C46       -78.3233   27.8450  -76.4538 C.3       11 UNK        -0.0857 
     47 S47       -79.7489   27.6488  -75.3307 S.3       11 UNK        -0.2512 
     48 C48       -79.8501   29.3025  -74.5678 C.3       11 UNK         0.0225 
     49 N         -77.5182   25.4968  -76.1605 N.am      5 UNK        -0.4615 
     50 C         -76.7042   24.4471  -75.9790 C.2       4 UNK         0.5053 
     51 O         -75.5061   24.5635  -75.7254 O.2       4 UNK        -0.5105 
     52 CA        -77.2979   23.0322  -76.1016 C.3       4 UNK         0.0263 
     53 CB        -77.0638   22.2303  -74.8108 C.3       4 UNK        -0.1981 
     54 N         -78.7266   23.0069  -76.4195 N.am      4 UNK        -0.4224 
     55 C         -79.2828   23.2740  -77.6059 C.2       3 UNK         0.4895 
     56 O         -78.6349   23.5909  -78.6034 O.2       3 UNK        -0.5091 
     57 CA        -80.8205   23.2081  -77.6912 C.3       3 UNK         0.0250 
     58 CB        -81.3000   21.7514  -77.8446 C.3       3 UNK        -0.1996 
     59 N         -81.5399   23.8978  -76.6043 N.am      3 UNK        -0.4254 
     60 C         -81.5512   23.6208  -75.2916 C.2       2 UNK         0.5004 
     61 O         -80.9113   22.7049  -74.7687 O.2       2 UNK        -0.5226 
     62 CA        -82.4284   24.5100  -74.4081 C.3       2 UNK         0.0269 
     63 CB        -83.7882   23.8416  -74.1340 C.3       2 UNK        -0.1926 
     64 N         -81.7176   24.7556  -73.1563 N.am      2 UNK        -0.4687 
     65 C         -81.9302   25.7928  -72.3410 C.2       1 UNK         0.5165 
     66 O         -82.8224   26.6223  -72.5310 O.2       1 UNK        -0.5079 
     67 H67       -76.6826   25.6645  -71.5105 H         1 UNK         0.0900 
     68 H68       -76.9001   24.9937  -73.1261 H         1 UNK         0.0900 
     69 H69       -77.3349   26.6721  -72.8049 H         1 UNK         0.0900 
     70 H70       -79.3013   27.1453  -71.6544 H         1 UNK         0.2959 
     71 H71       -80.9698   25.0018  -70.6071 H         1 UNK         0.1079 
     72 H72       -81.8145   27.9278  -70.6508 H         1 UNK         0.0837 
     73 H73       -82.2757   26.6639  -69.5706 H         1 UNK         0.0837 
     74 H74       -79.2463   29.8023  -68.7360 H         1 UNK         0.0685 
     75 H75       -80.7641   29.8387  -69.5880 H         1 UNK         0.0685 
     76 H76       -80.8411   29.3041  -72.0507 H         1 UNK         0.1434 
     77 H77       -77.1392   29.5036  -74.1957 H         1 UNK         0.1329 
     78 H78       -77.1275   29.4178  -69.9078 H         1 UNK         0.1335 
     79 H79       -75.0402   29.0964  -72.9318 H         1 UNK         0.0680 
     80 H80       -75.0527   29.0576  -71.1810 H         1 UNK         0.0680 
     81 H81       -72.9521   30.1848  -71.2074 H         1 UNK         0.1032 
     82 H82       -73.0091   31.8594  -70.7383 H         1 UNK         0.1032 
     83 H83       -72.5423   32.5279  -73.1413 H         1 UNK         0.0461 
     84 H84       -69.3518   33.0091  -71.6871 H         1 UNK         0.3453 
     85 H85       -70.8452   33.7230  -72.2372 H         1 UNK         0.3453 
     86 H86       -72.9059   29.7708  -73.6794 H         1 UNK         0.2984 
     87 H87       -72.7717   29.8733  -76.7124 H         1 UNK         0.0554 
     88 H88       -70.4592   30.1877  -77.5076 H         1 UNK         0.0847 
     89 H89       -70.9110   28.4997  -77.6678 H         1 UNK         0.0847 
     90 H90       -69.8568   29.0104  -76.3501 H         1 UNK         0.0847 
     91 H91       -73.3365   27.9632  -75.8303 H         1 UNK         0.3141 
     92 H92       -71.7682   25.5679  -73.6598 H         1 UNK         0.0743 
     93 H93       -73.5046   26.9412  -72.4676 H         1 UNK         0.0784 
     94 H94       -74.5201   26.9023  -73.9063 H         1 UNK         0.0784 
     95 H95       -74.1514   25.4139  -73.0443 H         1 UNK         0.0784 
     96 H96       -73.8253   25.2400  -75.5972 H         1 UNK         0.3213 
     97 H97       -71.7642   24.2194  -78.3347 H         1 UNK         0.0855 
     98 H98       -73.7558   22.7471  -76.5220 H         1 UNK         0.0814 
     99 H99       -72.1428   22.2023  -76.9502 H         1 UNK         0.0814 
    100 H100      -73.3783   22.3252  -78.1915 H         1 UNK         0.0814 
    101 H101      -74.5966   24.7667  -77.7568 H         1 UNK         0.3105 
    102 H102      -74.6101   27.9372  -79.2694 H         1 UNK         0.0547 
    103 H103      -75.6309   25.3661  -80.5947 H         1 UNK         0.0837 
    104 H104      -74.5786   26.5547  -81.3495 H         1 UNK         0.0837 
    105 H105      -76.2181   26.9997  -80.9094 H         1 UNK         0.0837 
    106 H106      -76.7096   26.1279  -78.5029 H         1 UNK         0.3020 
    107 H107      -76.8272   27.1211  -75.0799 H         1 UNK         0.1245 
    108 H108      -78.6751   27.6488  -77.4686 H         1 UNK         0.0781 
    109 H109      -77.9995   28.8872  -76.4519 H         1 UNK         0.0781 
    110 H110      -80.9030   29.5265  -74.3891 H         1 UNK         0.0836 
    111 H111      -79.5000   30.0752  -75.2533 H         1 UNK         0.0836 
    112 H112      -78.4918   25.3116  -76.3485 H         1 UNK         0.3022 
    113 H113      -76.7604   22.5354  -76.9118 H         1 UNK         0.0747 
    114 H114      -77.5990   22.6636  -73.9653 H         1 UNK         0.0793 
    115 H115      -77.3960   21.1980  -74.9214 H         1 UNK         0.0793 
    116 H116      -76.0052   22.2008  -74.5483 H         1 UNK         0.0793 
    117 H117      -79.3650   22.7760  -75.6582 H         1 UNK         0.3047 
    118 H118      -81.0984   23.7363  -78.6050 H         1 UNK         0.0822 
    119 H119      -82.3780   21.7037  -77.9987 H         1 UNK         0.0807 
    120 H120      -81.0603   21.1459  -76.9699 H         1 UNK         0.0807 
    121 H121      -80.8289   21.2753  -78.7057 H         1 UNK         0.0807 
    122 H122      -82.0916   24.6873  -76.9124 H         1 UNK         0.2946 
    123 H123      -82.5876   25.4645  -74.9160 H         1 UNK         0.1144 
    124 H124      -84.4349   24.4825  -73.5345 H         1 UNK         0.0793 
    125 H125      -83.6703   22.8954  -73.6043 H         1 UNK         0.0793 
    126 H126      -84.3157   23.6319  -75.0654 H         1 UNK         0.0793 
    127 H127      -80.9293   24.1393  -72.9739 H         1 UNK         0.2896 
@<TRIPOS>BOND
     1    1    2 1    
     2    1   67 1    
     3    1   68 1    
     4    1   69 1    
     5    2    3 2    
     6    2    4 am   BACKBONE|DICT|INTERRES
     7    4    5 1    
     8    4   70 1    
     9    5    6 1    
    10    5   65 1    
    11    5   71 1    
    12    6    7 1    
    13    6   72 1    
    14    6   73 1    
    15    7    8 1    
    16    8    9 1    
    17    8   74 1    
    18    8   75 1    
    19    9   10 ar   
    20    9   14 ar   
    21   10   11 ar   
    22   10   76 1    
    23   11   12 ar   
    24   11   48 1    
    25   12   13 ar   
    26   12   77 1    
    27   13   14 ar   
    28   13   15 1    
    29   14   78 1    
    30   15   16 1    
    31   15   79 1    
    32   15   80 1    
    33   16   17 1    
    34   17   18 1    
    35   17   81 1    
    36   17   82 1    
    37   18   19 1    
    38   18   22 1    
    39   18   83 1    
    40   19   20 am   BACKBONE|DICT|INTERRES
    41   19   21 2    
    42   20   84 1    
    43   20   85 1    
    44   22   23 am   BACKBONE|DICT|INTERRES
    45   22   86 1    
    46   23   24 2    
    47   23   25 1    
    48   25   26 1    
    49   25   27 1    
    50   25   87 1    
    51   26   88 1    
    52   26   89 1    
    53   26   90 1    
    54   27   28 am   BACKBONE|DICT|INTERRES
    55   27   91 1    
    56   28   29 2    
    57   28   30 1    
    58   30   31 1    
    59   30   32 1    
    60   30   92 1    
    61   31   93 1    
    62   31   94 1    
    63   31   95 1    
    64   32   33 am   BACKBONE|DICT|INTERRES
    65   32   96 1    
    66   33   34 2    
    67   33   35 1    
    68   35   36 1    
    69   35   37 1    
    70   35   97 1    
    71   36   98 1    
    72   36   99 1    
    73   36  100 1    
    74   37   38 am   BACKBONE|DICT|INTERRES
    75   37  101 1    
    76   38   39 2    
    77   38   40 1    
    78   40   41 1    
    79   40   42 1    
    80   40  102 1    
    81   41  103 1    
    82   41  104 1    
    83   41  105 1    
    84   42   43 am   BACKBONE|DICT|INTERRES
    85   42  106 1    
    86   43   44 2    
    87   43   45 1    
    88   45   46 1    
    89   45   49 1    
    90   45  107 1    
    91   46   47 1    
    92   46  108 1    
    93   46  109 1    
    94   47   48 1    
    95   48  110 1    
    96   48  111 1    
    97   49   50 am   BACKBONE|DICT|INTERRES
    98   49  112 1    
    99   50   51 2    
   100   50   52 1    
   101   52   53 1    
   102   52   54 1    
   103   52  113 1    
   104   53  114 1    
   105   53  115 1    
   106   53  116 1    
   107   54   55 am   BACKBONE|DICT|INTERRES
   108   54  117 1    
   109   55   56 2    
   110   55   57 1    
   111   57   58 1    
   112   57   59 1    
   113   57  118 1    
   114   58  119 1    
   115   58  120 1    
   116   58  121 1    
   117   59   60 am   BACKBONE|DICT|INTERRES
   118   59  122 1    
   119   60   61 2    
   120   60   62 1    
   121   62   63 1    
   122   62   64 1    
   123   62  123 1    
   124   63  124 1    
   125   63  125 1    
   126   63  126 1    
   127   64   65 am   BACKBONE|DICT|INTERRES
   128   64  127 1    
   129   65   66 2    
@<TRIPOS>SUBSTRUCTURE
     1 UNK         1 GROUP             0       ****    0 ROOT    
