@<TRIPOS>MOLECULE
3R135
127   129    1
SMALL
USER_CHARGES


@<TRIPOS>ATOM
      1 CA        -80.0266   24.7726  -72.3168 C.3       0 UNK        -0.1998 
      2 C         -80.3566   25.7540  -73.4302 C.2       0 UNK         0.4909 
      3 O         -79.5479   25.9168  -74.3462 O.2       0 UNK        -0.5240 
      4 N         -81.5502   26.3687  -73.3442 N.am      1 UNK        -0.4739 
      5 CA        -82.1247   27.4410  -74.1851 C.3       1 UNK         0.0864 
      6 C6        -81.9205   28.8686  -73.5985 C.3       11 UNK        -0.0881 
      7 S7        -80.1892   29.3097  -73.2274 S.3       11 UNK        -0.2682 
      8 C8        -80.2474   29.4985  -71.4159 C.3       11 UNK         0.0289 
      9 C9        -78.8464   29.4202  -70.8361 C.ar      11 UNK        -0.0687 
     10 C10       -78.4037   28.2400  -70.2330 C.ar      11 UNK        -0.0823 
     11 C11       -77.0730   28.1111  -69.8254 C.ar      11 UNK        -0.0830 
     12 C12       -76.1992   29.1934  -69.9716 C.ar      11 UNK        -0.1021 
     13 C13       -76.6366   30.3824  -70.5610 C.ar      11 UNK        -0.0753 
     14 C14       -77.9660   30.4968  -70.9767 C.ar      11 UNK        -0.0933 
     15 C15       -75.6570   31.5159  -70.8166 C.3       11 UNK         0.0166 
     16 S16       -75.1144   31.5080  -72.5586 S.3       11 UNK        -0.2615 
     17 C17       -73.2933   31.5786  -72.4141 C.3       11 UNK        -0.0865 
     18 CA        -72.5771   30.2456  -72.7713 C.3       10 UNK         0.0862 
     19 C         -72.7744   29.1299  -71.7079 C.2       10 UNK         0.5551 
     20 N         -73.1373   27.9084  -72.0790 N.am      10 UNK        -0.7319 
     21 O         -72.5591   29.3678  -70.5222 O.2       10 UNK        -0.5018 
     22 N         -72.8184   29.8143  -74.1584 N.am      10 UNK        -0.4509 
     23 C         -72.1956   30.3168  -75.2300 C.2       10 UNK         0.4899 
     24 O         -71.3767   31.2370  -75.1800 O.2       10 UNK        -0.4839 
     25 CA        -72.5420   29.6609  -76.5793 C.3       9 UNK         0.0222 
     26 CB        -71.7555   30.2519  -77.7684 C.3       9 UNK        -0.1966 
     27 N         -72.4051   28.2016  -76.5324 N.am      9 UNK        -0.4218 
     28 C         -71.3036   27.4774  -76.2806 C.2       9 UNK         0.5020 
     29 O         -70.1855   27.9603  -76.0963 O.2       9 UNK        -0.5274 
     30 CA        -71.4703   25.9461  -76.2047 C.3       8 UNK         0.0270 
     31 CB        -71.4150   25.4756  -74.7417 C.3       8 UNK        -0.1976 
     32 N         -72.7092   25.4561  -76.8181 N.am      8 UNK        -0.4313 
     33 C         -72.9419   25.4105  -78.1378 C.2       8 UNK         0.5041 
     34 O         -72.1005   25.6925  -78.9917 O.2       8 UNK        -0.5577 
     35 CA        -74.3652   25.0253  -78.5791 C.3       7 UNK         0.0284 
     36 CB        -74.5459   23.4991  -78.5802 C.3       7 UNK        -0.1958 
     37 N         -75.4019   25.6475  -77.7500 N.am      7 UNK        -0.4454 
     38 C         -75.6255   26.9675  -77.6680 C.2       7 UNK         0.5089 
     39 O         -75.0208   27.8089  -78.3312 O.2       7 UNK        -0.5125 
     40 CA        -76.6606   27.4357  -76.6337 C.3       6 UNK         0.0408 
     41 CB        -78.0835   27.3522  -77.2041 C.3       6 UNK        -0.1791 
     42 N         -76.5848   26.6714  -75.3895 N.am      6 UNK        -0.4762 
     43 C         -75.5571   26.7114  -74.5292 C.2       6 UNK         0.5007 
     44 O         -74.5702   27.4398  -74.6566 O.2       6 UNK        -0.5032 
     45 CA        -75.6399   25.7625  -73.3200 C.3       5 UNK         0.0783 
     46 C46       -76.5031   26.4195  -72.2281 C.3       11 UNK        -0.0857 
     47 S47       -76.6104   25.4719  -70.6672 S.3       11 UNK        -0.2512 
     48 C48       -76.5403   26.7605  -69.3612 C.3       11 UNK         0.0225 
     49 N         -76.0965   24.4238  -73.7027 N.am      5 UNK        -0.4615 
     50 C         -75.3855   23.5993  -74.4832 C.2       4 UNK         0.5053 
     51 O         -74.2879   23.8885  -74.9592 O.2       4 UNK        -0.5105 
     52 CA        -76.0078   22.2349  -74.8177 C.3       4 UNK         0.0263 
     53 CB        -75.7579   21.2384  -73.6746 C.3       4 UNK        -0.1981 
     54 N         -77.4401   22.2719  -75.1309 N.am      4 UNK        -0.4224 
     55 C         -78.0199   23.0324  -76.0710 C.2       3 UNK         0.4895 
     56 O         -77.4182   23.8819  -76.7302 O.2       3 UNK        -0.5091 
     57 CA        -79.5109   22.7873  -76.3488 C.3       3 UNK         0.0250 
     58 CB        -80.2536   22.0196  -75.2344 C.3       3 UNK        -0.1996 
     59 N         -80.1776   24.0655  -76.5829 N.am      3 UNK        -0.4254 
     60 C         -81.0153   24.3272  -77.5946 C.2       2 UNK         0.5004 
     61 O         -81.3103   23.5111  -78.4697 O.2       2 UNK        -0.5226 
     62 CA        -81.6637   25.7211  -77.5977 C.3       2 UNK         0.0269 
     63 CB        -82.9244   25.8056  -78.4804 C.3       2 UNK        -0.1926 
     64 N         -81.9946   26.1022  -76.2257 N.am      2 UNK        -0.4687 
     65 C         -81.8470   27.3240  -75.7032 C.2       1 UNK         0.5165 
     66 O         -81.5174   28.3103  -76.3649 O.2       1 UNK        -0.5079 
     67 H67       -80.8979   24.1783  -72.0426 H         1 UNK         0.0900 
     68 H68       -79.6816   25.3094  -71.4341 H         1 UNK         0.0900 
     69 H69       -79.2360   24.0899  -72.6250 H         1 UNK         0.0900 
     70 H70       -82.1385   26.1144  -72.5629 H         1 UNK         0.2959 
     71 H71       -83.2011   27.2676  -74.1301 H         1 UNK         0.1079 
     72 H72       -82.3322   29.6278  -74.2660 H         1 UNK         0.0837 
     73 H73       -82.5089   28.9595  -72.6846 H         1 UNK         0.0837 
     74 H74       -80.8760   28.7183  -70.9836 H         1 UNK         0.0685 
     75 H75       -80.7091   30.4535  -71.1608 H         1 UNK         0.0685 
     76 H76       -79.0696   27.3920  -70.1538 H         1 UNK         0.1434 
     77 H77       -75.1610   29.0897  -69.6866 H         1 UNK         0.1329 
     78 H78       -78.2992   31.4018  -71.4663 H         1 UNK         0.1335 
     79 H79       -74.8045   31.4285  -70.1419 H         1 UNK         0.0680 
     80 H80       -76.1287   32.4737  -70.5926 H         1 UNK         0.0680 
     81 H81       -73.0015   31.9161  -71.4184 H         1 UNK         0.1032 
     82 H82       -72.9439   32.3635  -73.0861 H         1 UNK         0.1032 
     83 H83       -71.5066   30.4489  -72.7021 H         1 UNK         0.0461 
     84 H84       -73.2254   27.1997  -71.3694 H         1 UNK         0.3453 
     85 H85       -73.3454   27.6968  -73.0437 H         1 UNK         0.3453 
     86 H86       -73.4946   29.0689  -74.2887 H         1 UNK         0.2984 
     87 H87       -73.6003   29.8603  -76.7544 H         1 UNK         0.0554 
     88 H88       -72.0509   29.7846  -78.7078 H         1 UNK         0.0847 
     89 H89       -70.6795   30.1200  -77.6514 H         1 UNK         0.0847 
     90 H90       -71.9424   31.3220  -77.8656 H         1 UNK         0.0847 
     91 H91       -73.2731   27.6910  -76.6279 H         1 UNK         0.3141 
     92 H92       -70.6274   25.5010  -76.7374 H         1 UNK         0.0743 
     93 H93       -70.4944   25.8039  -74.2574 H         1 UNK         0.0784 
     94 H94       -72.2485   25.8696  -74.1602 H         1 UNK         0.0784 
     95 H95       -71.4465   24.3879  -74.6741 H         1 UNK         0.0784 
     96 H96       -73.4273   25.1141  -76.1834 H         1 UNK         0.3213 
     97 H97       -74.5027   25.3842  -79.6014 H         1 UNK         0.0855 
     98 H98       -74.4183   23.0758  -77.5842 H         1 UNK         0.0814 
     99 H99       -73.8150   23.0211  -79.2337 H         1 UNK         0.0814 
    100 H100      -75.5362   23.2171  -78.9385 H         1 UNK         0.0814 
    101 H101      -76.0011   25.0241  -77.2119 H         1 UNK         0.3105 
    102 H102      -76.4503   28.4809  -76.3969 H         1 UNK         0.0547 
    103 H103      -78.3570   26.3288  -77.4608 H         1 UNK         0.0837 
    104 H104      -78.8155   27.7255  -76.4877 H         1 UNK         0.0837 
    105 H105      -78.1783   27.9537  -78.1088 H         1 UNK         0.0837 
    106 H106      -77.3653   26.0582  -75.1866 H         1 UNK         0.3020 
    107 H107      -74.6276   25.6514  -72.9264 H         1 UNK         0.1245 
    108 H108      -77.5182   26.6005  -72.5857 H         1 UNK         0.0781 
    109 H109      -76.0765   27.4014  -72.0252 H         1 UNK         0.0781 
    110 H110      -77.1119   26.4227  -68.4959 H         1 UNK         0.0836 
    111 H111      -75.5064   26.8535  -69.0252 H         1 UNK         0.0836 
    112 H112      -76.9908   24.1239  -73.3464 H         1 UNK         0.3022 
    113 H113      -75.4986   21.8599  -75.7075 H         1 UNK         0.0747 
    114 H114      -74.6953   21.1791  -73.4339 H         1 UNK         0.0793 
    115 H115      -76.0818   20.2331  -73.9450 H         1 UNK         0.0793 
    116 H116      -76.2825   21.5275  -72.7629 H         1 UNK         0.0793 
    117 H117      -78.0198   21.6048  -74.6429 H         1 UNK         0.3047 
    118 H118      -79.5429   22.1811  -77.2564 H         1 UNK         0.0822 
    119 H119      -79.8566   21.0119  -75.1065 H         1 UNK         0.0807 
    120 H120      -81.3104   21.9077  -75.4780 H         1 UNK         0.0807 
    121 H121      -80.1924   22.5316  -74.2745 H         1 UNK         0.0807 
    122 H122      -79.9438   24.8105  -75.9306 H         1 UNK         0.2946 
    123 H123      -80.9140   26.4056  -78.0012 H         1 UNK         0.1144 
    124 H124      -83.6976   25.1143  -78.1433 H         1 UNK         0.0793 
    125 H125      -82.6944   25.5613  -79.5182 H         1 UNK         0.0793 
    126 H126      -83.3462   26.8107  -78.4726 H         1 UNK         0.0793 
    127 H127      -82.2532   25.3450  -75.6075 H         1 UNK         0.2896 
@<TRIPOS>BOND
     1    1    2 1    
     2    1   67 1    
     3    1   68 1    
     4    1   69 1    
     5    2    3 2    
     6    2    4 am   BACKBONE|DICT|INTERRES
     7    4    5 1    
     8    4   70 1    
     9    5    6 1    
    10    5   65 1    
    11    5   71 1    
    12    6    7 1    
    13    6   72 1    
    14    6   73 1    
    15    7    8 1    
    16    8    9 1    
    17    8   74 1    
    18    8   75 1    
    19    9   10 ar   
    20    9   14 ar   
    21   10   11 ar   
    22   10   76 1    
    23   11   12 ar   
    24   11   48 1    
    25   12   13 ar   
    26   12   77 1    
    27   13   14 ar   
    28   13   15 1    
    29   14   78 1    
    30   15   16 1    
    31   15   79 1    
    32   15   80 1    
    33   16   17 1    
    34   17   18 1    
    35   17   81 1    
    36   17   82 1    
    37   18   19 1    
    38   18   22 1    
    39   18   83 1    
    40   19   20 am   BACKBONE|DICT|INTERRES
    41   19   21 2    
    42   20   84 1    
    43   20   85 1    
    44   22   23 am   BACKBONE|DICT|INTERRES
    45   22   86 1    
    46   23   24 2    
    47   23   25 1    
    48   25   26 1    
    49   25   27 1    
    50   25   87 1    
    51   26   88 1    
    52   26   89 1    
    53   26   90 1    
    54   27   28 am   BACKBONE|DICT|INTERRES
    55   27   91 1    
    56   28   29 2    
    57   28   30 1    
    58   30   31 1    
    59   30   32 1    
    60   30   92 1    
    61   31   93 1    
    62   31   94 1    
    63   31   95 1    
    64   32   33 am   BACKBONE|DICT|INTERRES
    65   32   96 1    
    66   33   34 2    
    67   33   35 1    
    68   35   36 1    
    69   35   37 1    
    70   35   97 1    
    71   36   98 1    
    72   36   99 1    
    73   36  100 1    
    74   37   38 am   BACKBONE|DICT|INTERRES
    75   37  101 1    
    76   38   39 2    
    77   38   40 1    
    78   40   41 1    
    79   40   42 1    
    80   40  102 1    
    81   41  103 1    
    82   41  104 1    
    83   41  105 1    
    84   42   43 am   BACKBONE|DICT|INTERRES
    85   42  106 1    
    86   43   44 2    
    87   43   45 1    
    88   45   46 1    
    89   45   49 1    
    90   45  107 1    
    91   46   47 1    
    92   46  108 1    
    93   46  109 1    
    94   47   48 1    
    95   48  110 1    
    96   48  111 1    
    97   49   50 am   BACKBONE|DICT|INTERRES
    98   49  112 1    
    99   50   51 2    
   100   50   52 1    
   101   52   53 1    
   102   52   54 1    
   103   52  113 1    
   104   53  114 1    
   105   53  115 1    
   106   53  116 1    
   107   54   55 am   BACKBONE|DICT|INTERRES
   108   54  117 1    
   109   55   56 2    
   110   55   57 1    
   111   57   58 1    
   112   57   59 1    
   113   57  118 1    
   114   58  119 1    
   115   58  120 1    
   116   58  121 1    
   117   59   60 am   BACKBONE|DICT|INTERRES
   118   59  122 1    
   119   60   61 2    
   120   60   62 1    
   121   62   63 1    
   122   62   64 1    
   123   62  123 1    
   124   63  124 1    
   125   63  125 1    
   126   63  126 1    
   127   64   65 am   BACKBONE|DICT|INTERRES
   128   64  127 1    
   129   65   66 2    
@<TRIPOS>SUBSTRUCTURE
     1 UNK         1 GROUP             0       ****    0 ROOT    
