@<TRIPOS>MOLECULE
3R135
127   129    1
SMALL
USER_CHARGES


@<TRIPOS>ATOM
      1 CA        -77.7900   24.7569  -69.1945 C.3       0 UNK        -0.1998 
      2 C         -79.1382   24.9383  -69.8749 C.2       0 UNK         0.4909 
      3 O         -79.6912   23.9758  -70.4089 O.2       0 UNK        -0.5240 
      4 N         -79.6784   26.1623  -69.8549 N.am      1 UNK        -0.4739 
      5 CA        -80.8846   26.5454  -70.5944 C.3       1 UNK         0.0864 
      6 C6        -81.5619   27.8139  -70.0103 C.3       11 UNK        -0.0881 
      7 S7        -80.4353   29.2152  -69.6714 S.3       11 UNK        -0.2682 
      8 C8        -80.7612   30.3576  -71.0554 C.3       11 UNK         0.0289 
      9 C9        -79.5013   30.6262  -71.8669 C.ar      11 UNK        -0.0687 
     10 C10       -79.4119   30.2113  -73.1997 C.ar      11 UNK        -0.0823 
     11 C11       -78.2498   30.4471  -73.9416 C.ar      11 UNK        -0.0830 
     12 C12       -77.1776   31.1157  -73.3434 C.ar      11 UNK        -0.1021 
     13 C13       -77.2530   31.5349  -72.0115 C.ar      11 UNK        -0.0753 
     14 C14       -78.4215   31.2969  -71.2830 C.ar      11 UNK        -0.0933 
     15 C15       -76.0760   32.2477  -71.3588 C.3       11 UNK         0.0166 
     16 S16       -75.1158   31.1502  -70.2626 S.3       11 UNK        -0.2615 
     17 C17       -74.3882   29.9708  -71.4535 C.3       11 UNK        -0.0865 
     18 CA        -74.6154   28.4731  -71.0995 C.3       10 UNK         0.0862 
     19 C         -76.1196   28.0630  -71.0730 C.2       10 UNK         0.5551 
     20 N         -76.7114   27.7062  -72.2008 N.am      10 UNK        -0.7319 
     21 O         -76.7311   28.0247  -70.0078 O.2       10 UNK        -0.5018 
     22 N         -73.7541   27.5831  -71.9030 N.am      10 UNK        -0.4509 
     23 C         -73.7428   27.4541  -73.2368 C.2       10 UNK         0.4899 
     24 O         -74.4764   28.0860  -74.0015 O.2       10 UNK        -0.4839 
     25 CA        -72.7719   26.4045  -73.8048 C.3       9 UNK         0.0222 
     26 CB        -73.3748   24.9986  -73.6657 C.3       9 UNK        -0.1966 
     27 N         -72.4810   26.6760  -75.2157 N.am      9 UNK        -0.4218 
     28 C         -71.6651   27.6591  -75.6271 C.2       9 UNK         0.5020 
     29 O         -70.9631   28.3186  -74.8566 O.2       9 UNK        -0.5274 
     30 CA        -71.6523   27.9988  -77.1314 C.3       8 UNK         0.0270 
     31 CB        -70.3414   28.6766  -77.5878 C.3       8 UNK        -0.1976 
     32 N         -72.0009   26.8756  -78.0069 N.am      8 UNK        -0.4313 
     33 C         -71.3145   25.7382  -78.2024 C.2       8 UNK         0.5041 
     34 O         -70.2443   25.4823  -77.6486 O.2       8 UNK        -0.5577 
     35 CA        -71.9187   24.7041  -79.1747 C.3       7 UNK         0.0284 
     36 CB        -71.9087   23.2914  -78.5627 C.3       7 UNK        -0.1958 
     37 N         -73.2937   25.0456  -79.5479 N.am      7 UNK        -0.4454 
     38 C         -73.6666   25.6452  -80.6874 C.2       7 UNK         0.5089 
     39 O         -72.8918   25.9085  -81.6069 O.2       7 UNK        -0.5125 
     40 CA        -75.1513   26.0446  -80.8204 C.3       6 UNK         0.0408 
     41 CB        -75.9073   25.0123  -81.6716 C.3       6 UNK        -0.1791 
     42 N         -75.8416   26.2059  -79.5350 N.am      6 UNK        -0.4762 
     43 C         -75.5544   27.1412  -78.6157 C.2       6 UNK         0.5007 
     44 O         -74.7042   28.0152  -78.7832 O.2       6 UNK        -0.5032 
     45 CA        -76.2657   27.0283  -77.2502 C.3       5 UNK         0.0783 
     46 C46       -77.5358   27.9098  -77.2131 C.3       11 UNK        -0.0857 
     47 S47       -78.0944   28.1628  -75.4985 S.3       11 UNK        -0.2512 
     48 C48       -78.1466   29.9788  -75.3865 C.3       11 UNK         0.0225 
     49 N         -76.5482   25.6300  -76.8863 N.am      5 UNK        -0.4615 
     50 C         -75.6077   24.6927  -76.6994 C.2       4 UNK         0.5053 
     51 O         -74.4025   24.9388  -76.7789 O.2       4 UNK        -0.5105 
     52 CA        -76.0687   23.2364  -76.4781 C.3       4 UNK         0.0263 
     53 CB        -75.1040   22.4248  -75.5866 C.3       4 UNK        -0.1981 
     54 N         -77.4577   23.0815  -76.0258 N.am      4 UNK        -0.4224 
     55 C         -77.9859   23.5013  -74.8673 C.2       3 UNK         0.4895 
     56 O         -77.3683   24.1271  -74.0048 O.2       3 UNK        -0.5091 
     57 CA        -79.4548   23.1173  -74.6232 C.3       3 UNK         0.0250 
     58 CB        -79.5584   22.0226  -73.5488 C.3       3 UNK        -0.1996 
     59 N         -80.2520   24.2729  -74.2165 N.am      3 UNK        -0.4254 
     60 C         -80.5671   25.3000  -75.0183 C.2       2 UNK         0.5004 
     61 O         -80.2518   25.3466  -76.2092 O.2       2 UNK        -0.5226 
     62 CA        -81.4012   26.4521  -74.4178 C.3       2 UNK         0.0269 
     63 CB        -82.8012   26.4962  -75.0532 C.3       2 UNK        -0.1926 
     64 N         -81.5473   26.3984  -72.9570 N.am      2 UNK        -0.4687 
     65 C         -80.5632   26.6873  -72.0953 C.2       1 UNK         0.5165 
     66 O         -79.4411   27.0428  -72.4509 O.2       1 UNK        -0.5079 
     67 H67       -77.0280   24.5218  -69.9374 H         1 UNK         0.0900 
     68 H68       -77.8352   23.9387  -68.4765 H         1 UNK         0.0900 
     69 H69       -77.4798   25.6577  -68.6648 H         1 UNK         0.0900 
     70 H70       -79.1501   26.9363  -69.4729 H         1 UNK         0.2959 
     71 H71       -81.6015   25.7265  -70.4984 H         1 UNK         0.1079 
     72 H72       -82.3957   28.1377  -70.6356 H         1 UNK         0.0837 
     73 H73       -82.0182   27.5493  -69.0552 H         1 UNK         0.0837 
     74 H74       -81.5528   29.9689  -71.6969 H         1 UNK         0.0685 
     75 H75       -81.1327   31.3005  -70.6519 H         1 UNK         0.0685 
     76 H76       -80.2366   29.6828  -73.6570 H         1 UNK         0.1434 
     77 H77       -76.2765   31.2985  -73.9126 H         1 UNK         0.1329 
     78 H78       -78.4831   31.6140  -70.2510 H         1 UNK         0.1335 
     79 H79       -75.4133   32.6715  -72.1151 H         1 UNK         0.0680 
     80 H80       -76.4456   33.0909  -70.7734 H         1 UNK         0.0680 
     81 H81       -73.3172   30.1752  -71.4901 H         1 UNK         0.1032 
     82 H82       -74.7542   30.1796  -72.4574 H         1 UNK         0.1032 
     83 H83       -74.2555   28.3382  -70.0783 H         1 UNK         0.0461 
     84 H84       -76.1998   27.7726  -73.0714 H         1 UNK         0.3453 
     85 H85       -77.6991   27.4599  -72.2124 H         1 UNK         0.3453 
     86 H86       -73.1432   26.9860  -71.3643 H         1 UNK         0.2984 
     87 H87       -71.8366   26.4392  -73.2420 H         1 UNK         0.0554 
     88 H88       -73.4117   24.6904  -72.6204 H         1 UNK         0.0847 
     89 H89       -72.7907   24.2526  -74.2049 H         1 UNK         0.0847 
     90 H90       -74.3974   24.9670  -74.0421 H         1 UNK         0.0847 
     91 H91       -73.0485   26.1811  -75.8965 H         1 UNK         0.3141 
     92 H92       -72.4518   28.7289  -77.2652 H         1 UNK         0.0743 
     93 H93       -70.1730   29.6084  -77.0467 H         1 UNK         0.0784 
     94 H94       -69.4737   28.0399  -77.4130 H         1 UNK         0.0784 
     95 H95       -70.3702   28.9224  -78.6493 H         1 UNK         0.0784 
     96 H96       -72.8763   26.9903  -78.5050 H         1 UNK         0.3213 
     97 H97       -71.2829   24.6916  -80.0623 H         1 UNK         0.0855 
     98 H98       -70.8900   22.9624  -78.3534 H         1 UNK         0.0814 
     99 H99       -72.3497   22.5608  -79.2408 H         1 UNK         0.0814 
    100 H100      -72.4601   23.2550  -77.6233 H         1 UNK         0.0814 
    101 H101      -73.9848   24.9073  -78.8195 H         1 UNK         0.3105 
    102 H102      -75.1851   27.0050  -81.3391 H         1 UNK         0.0547 
    103 H103      -75.4366   24.8926  -82.6485 H         1 UNK         0.0837 
    104 H104      -75.9245   24.0304  -81.1970 H         1 UNK         0.0837 
    105 H105      -76.9381   25.3199  -81.8481 H         1 UNK         0.0837 
    106 H106      -76.5539   25.5249  -79.3133 H         1 UNK         0.3020 
    107 H107      -75.5603   27.4170  -76.5107 H         1 UNK         0.1245 
    108 H108      -78.3459   27.4532  -77.7848 H         1 UNK         0.0781 
    109 H109      -77.3500   28.8825  -77.6728 H         1 UNK         0.0781 
    110 H110      -78.9985   30.3526  -75.9561 H         1 UNK         0.0836 
    111 H111      -77.2524   30.3946  -75.8533 H         1 UNK         0.0836 
    112 H112      -77.5208   25.3816  -76.7682 H         1 UNK         0.3022 
    113 H113      -76.0333   22.7836  -77.4700 H         1 UNK         0.0747 
    114 H114      -74.0773   22.4851  -75.9482 H         1 UNK         0.0793 
    115 H115      -75.1067   22.7757  -74.5553 H         1 UNK         0.0793 
    116 H116      -75.3759   21.3695  -75.5753 H         1 UNK         0.0793 
    117 H117      -78.0636   22.5869  -76.6668 H         1 UNK         0.3047 
    118 H118      -79.8826   22.7258  -75.5489 H         1 UNK         0.0822 
    119 H119      -78.9986   21.1336  -73.8424 H         1 UNK         0.0807 
    120 H120      -80.5925   21.7169  -73.3890 H         1 UNK         0.0807 
    121 H121      -79.1558   22.3588  -72.5921 H         1 UNK         0.0807 
    122 H122      -80.5001   24.3326  -73.2398 H         1 UNK         0.2946 
    123 H123      -80.8829   27.3784  -74.6753 H         1 UNK         0.1144 
    124 H124      -83.3718   27.3548  -74.6987 H         1 UNK         0.0793 
    125 H125      -83.3737   25.5947  -74.8314 H         1 UNK         0.0793 
    126 H126      -82.7354   26.5812  -76.1389 H         1 UNK         0.0793 
    127 H127      -82.4476   26.1065  -72.6033 H         1 UNK         0.2896 
@<TRIPOS>BOND
     1    1    2 1    
     2    1   67 1    
     3    1   68 1    
     4    1   69 1    
     5    2    3 2    
     6    2    4 am   BACKBONE|DICT|INTERRES
     7    4    5 1    
     8    4   70 1    
     9    5    6 1    
    10    5   65 1    
    11    5   71 1    
    12    6    7 1    
    13    6   72 1    
    14    6   73 1    
    15    7    8 1    
    16    8    9 1    
    17    8   74 1    
    18    8   75 1    
    19    9   10 ar   
    20    9   14 ar   
    21   10   11 ar   
    22   10   76 1    
    23   11   12 ar   
    24   11   48 1    
    25   12   13 ar   
    26   12   77 1    
    27   13   14 ar   
    28   13   15 1    
    29   14   78 1    
    30   15   16 1    
    31   15   79 1    
    32   15   80 1    
    33   16   17 1    
    34   17   18 1    
    35   17   81 1    
    36   17   82 1    
    37   18   19 1    
    38   18   22 1    
    39   18   83 1    
    40   19   20 am   BACKBONE|DICT|INTERRES
    41   19   21 2    
    42   20   84 1    
    43   20   85 1    
    44   22   23 am   BACKBONE|DICT|INTERRES
    45   22   86 1    
    46   23   24 2    
    47   23   25 1    
    48   25   26 1    
    49   25   27 1    
    50   25   87 1    
    51   26   88 1    
    52   26   89 1    
    53   26   90 1    
    54   27   28 am   BACKBONE|DICT|INTERRES
    55   27   91 1    
    56   28   29 2    
    57   28   30 1    
    58   30   31 1    
    59   30   32 1    
    60   30   92 1    
    61   31   93 1    
    62   31   94 1    
    63   31   95 1    
    64   32   33 am   BACKBONE|DICT|INTERRES
    65   32   96 1    
    66   33   34 2    
    67   33   35 1    
    68   35   36 1    
    69   35   37 1    
    70   35   97 1    
    71   36   98 1    
    72   36   99 1    
    73   36  100 1    
    74   37   38 am   BACKBONE|DICT|INTERRES
    75   37  101 1    
    76   38   39 2    
    77   38   40 1    
    78   40   41 1    
    79   40   42 1    
    80   40  102 1    
    81   41  103 1    
    82   41  104 1    
    83   41  105 1    
    84   42   43 am   BACKBONE|DICT|INTERRES
    85   42  106 1    
    86   43   44 2    
    87   43   45 1    
    88   45   46 1    
    89   45   49 1    
    90   45  107 1    
    91   46   47 1    
    92   46  108 1    
    93   46  109 1    
    94   47   48 1    
    95   48  110 1    
    96   48  111 1    
    97   49   50 am   BACKBONE|DICT|INTERRES
    98   49  112 1    
    99   50   51 2    
   100   50   52 1    
   101   52   53 1    
   102   52   54 1    
   103   52  113 1    
   104   53  114 1    
   105   53  115 1    
   106   53  116 1    
   107   54   55 am   BACKBONE|DICT|INTERRES
   108   54  117 1    
   109   55   56 2    
   110   55   57 1    
   111   57   58 1    
   112   57   59 1    
   113   57  118 1    
   114   58  119 1    
   115   58  120 1    
   116   58  121 1    
   117   59   60 am   BACKBONE|DICT|INTERRES
   118   59  122 1    
   119   60   61 2    
   120   60   62 1    
   121   62   63 1    
   122   62   64 1    
   123   62  123 1    
   124   63  124 1    
   125   63  125 1    
   126   63  126 1    
   127   64   65 am   BACKBONE|DICT|INTERRES
   128   64  127 1    
   129   65   66 2    
@<TRIPOS>SUBSTRUCTURE
     1 UNK         1 GROUP             0       ****    0 ROOT    
