@<TRIPOS>MOLECULE
3R135
127   129    1
SMALL
USER_CHARGES


@<TRIPOS>ATOM
      1 CA        -83.2037   27.6720  -75.9770 C.3       0 UNK        -0.1998 
      2 C         -82.1401   27.3189  -74.9495 C.2       0 UNK         0.4909 
      3 O         -81.2330   26.5433  -75.2520 O.2       0 UNK        -0.5240 
      4 N         -82.2426   27.8802  -73.7373 N.am      1 UNK        -0.4739 
      5 CA        -81.3138   27.6692  -72.6206 C.3       1 UNK         0.0864 
      6 C6        -81.6724   28.5403  -71.3919 C.3       11 UNK        -0.0881 
      7 S7        -81.5771   30.3234  -71.7673 S.3       11 UNK        -0.2682 
      8 C8        -79.9721   30.7721  -71.0299 C.3       11 UNK         0.0289 
      9 C9        -78.8125   30.0244  -71.6743 C.ar      11 UNK        -0.0687 
     10 C10       -78.4310   30.3174  -72.9866 C.ar      11 UNK        -0.0823 
     11 C11       -77.3710   29.6319  -73.5854 C.ar      11 UNK        -0.0830 
     12 C12       -76.6880   28.6511  -72.8622 C.ar      11 UNK        -0.1021 
     13 C13       -77.0375   28.3694  -71.5379 C.ar      11 UNK        -0.0753 
     14 C14       -78.1106   29.0514  -70.9552 C.ar      11 UNK        -0.0933 
     15 C15       -76.2503   27.3527  -70.7149 C.3       11 UNK         0.0166 
     16 S16       -74.4365   27.4752  -70.9032 S.3       11 UNK        -0.2615 
     17 C17       -74.1080   29.2401  -70.5365 C.3       11 UNK        -0.0865 
     18 CA        -72.9107   29.8259  -71.3353 C.3       10 UNK         0.0862 
     19 C         -71.5436   29.4507  -70.6875 C.2       10 UNK         0.5551 
     20 N         -70.6517   28.7307  -71.3574 N.am      10 UNK        -0.7319 
     21 O         -71.2818   29.8384  -69.5512 O.2       10 UNK        -0.5018 
     22 N         -73.0203   29.5383  -72.7751 N.am      10 UNK        -0.4509 
     23 C         -72.3884   30.2053  -73.7491 C.2       10 UNK         0.4899 
     24 O         -71.7513   31.2421  -73.5562 O.2       10 UNK        -0.4839 
     25 CA        -72.4770   29.6145  -75.1760 C.3       9 UNK         0.0222 
     26 CB        -71.2805   30.0294  -76.0569 C.3       9 UNK        -0.1966 
     27 N         -72.6561   28.1547  -75.2330 N.am      9 UNK        -0.4218 
     28 C         -71.8834   27.2188  -74.6570 C.2       9 UNK         0.5020 
     29 O         -70.9079   27.4714  -73.9490 O.2       9 UNK        -0.5274 
     30 CA        -72.2760   25.7505  -74.8811 C.3       8 UNK         0.0270 
     31 CB        -73.4186   25.3444  -73.9354 C.3       8 UNK        -0.1976 
     32 N         -72.6518   25.4441  -76.2617 N.am      8 UNK        -0.4313 
     33 C         -71.8091   25.4341  -77.3044 C.2       8 UNK         0.5041 
     34 O         -70.6184   25.7399  -77.2301 O.2       8 UNK        -0.5577 
     35 CA        -72.3842   24.9840  -78.6558 C.3       7 UNK         0.0284 
     36 CB        -72.4847   23.4502  -78.7159 C.3       7 UNK        -0.1958 
     37 N         -73.7049   25.5668  -78.8905 N.am      7 UNK        -0.4454 
     38 C         -73.9274   26.6829  -79.5969 C.2       7 UNK         0.5089 
     39 O         -73.0480   27.3019  -80.1973 O.2       7 UNK        -0.5125 
     40 CA        -75.3761   27.2088  -79.6483 C.3       6 UNK         0.0408 
     41 CB        -76.0776   26.7170  -80.9242 C.3       6 UNK        -0.1791 
     42 N         -76.1941   26.8555  -78.4830 N.am      6 UNK        -0.4762 
     43 C         -75.9332   27.2314  -77.2226 C.2       6 UNK         0.5007 
     44 O         -74.9462   27.8899  -76.8933 O.2       6 UNK        -0.5032 
     45 CA        -76.8923   26.7214  -76.1261 C.3       5 UNK         0.0783 
     46 C46       -78.1810   27.5777  -75.9489 C.3       11 UNK        -0.0857 
     47 S47       -78.1049   29.3798  -76.2621 S.3       11 UNK        -0.2512 
     48 C48       -76.9363   29.9779  -74.9999 C.3       11 UNK         0.0225 
     49 N         -77.2431   25.3015  -76.2692 N.am      5 UNK        -0.4615 
     50 C         -76.4193   24.2630  -76.4789 C.2       4 UNK         0.5053 
     51 O         -75.2061   24.3869  -76.6457 O.2       4 UNK        -0.5105 
     52 CA        -77.0362   22.8482  -76.4990 C.3       4 UNK         0.0263 
     53 CB        -76.1509   21.8472  -75.7355 C.3       4 UNK        -0.1981 
     54 N         -78.3873   22.8041  -75.9339 N.am      4 UNK        -0.4224 
     55 C         -79.5211   23.1341  -76.5631 C.2       3 UNK         0.4895 
     56 O         -79.5740   23.4322  -77.7558 O.2       3 UNK        -0.5091 
     57 CA        -80.7949   23.2273  -75.7048 C.3       3 UNK         0.0250 
     58 CB        -81.5281   21.8738  -75.6260 C.3       3 UNK        -0.1996 
     59 N         -80.5689   23.8233  -74.3757 N.am      3 UNK        -0.4254 
     60 C         -79.9347   23.3028  -73.3117 C.2       2 UNK         0.5004 
     61 O         -79.4342   22.1776  -73.3159 O.2       2 UNK        -0.5226 
     62 CA        -79.7615   24.1870  -72.0582 C.3       2 UNK         0.0269 
     63 CB        -78.3416   24.0582  -71.4765 C.3       2 UNK        -0.1926 
     64 N         -80.0329   25.6061  -72.3055 N.am      2 UNK        -0.4687 
     65 C         -81.2398   26.1799  -72.2301 C.2       1 UNK         0.5165 
     66 O         -82.2657   25.5822  -71.8986 O.2       1 UNK        -0.5079 
     67 H67       -83.7244   26.7714  -76.3010 H         1 UNK         0.0900 
     68 H68       -83.9418   28.3673  -75.5778 H         1 UNK         0.0900 
     69 H69       -82.7408   28.1314  -76.8499 H         1 UNK         0.0900 
     70 H70       -83.0102   28.5074  -73.5443 H         1 UNK         0.2959 
     71 H71       -80.3273   27.9747  -72.9755 H         1 UNK         0.1079 
     72 H72       -81.0133   28.3176  -70.5504 H         1 UNK         0.0837 
     73 H73       -82.6837   28.3166  -71.0466 H         1 UNK         0.0837 
     74 H74       -79.8169   31.8452  -71.1500 H         1 UNK         0.0685 
     75 H75       -80.0070   30.5877  -69.9550 H         1 UNK         0.0685 
     76 H76       -78.9642   31.0758  -73.5440 H         1 UNK         0.1434 
     77 H77       -75.8577   28.1303  -73.3160 H         1 UNK         0.1329 
     78 H78       -78.3918   28.8352  -69.9335 H         1 UNK         0.1335 
     79 H79       -76.5583   26.3506  -71.0099 H         1 UNK         0.0680 
     80 H80       -76.4889   27.4513  -69.6548 H         1 UNK         0.0680 
     81 H81       -74.9932   29.8324  -70.7668 H         1 UNK         0.1032 
     82 H82       -73.9645   29.3569  -69.4606 H         1 UNK         0.1032 
     83 H83       -72.9761   30.9107  -71.2312 H         1 UNK         0.0461 
     84 H84       -70.8452   28.3886  -72.2949 H         1 UNK         0.3453 
     85 H85       -69.7732   28.5075  -70.9187 H         1 UNK         0.3453 
     86 H86       -73.4969   28.6802  -73.0056 H         1 UNK         0.2984 
     87 H87       -73.3762   30.0427  -75.6208 H         1 UNK         0.0554 
     88 H88       -71.3761   29.6311  -77.0672 H         1 UNK         0.0847 
     89 H89       -70.3358   29.6730  -75.6446 H         1 UNK         0.0847 
     90 H90       -71.2105   31.1143  -76.1443 H         1 UNK         0.0847 
     91 H91       -73.4366   27.8491  -75.8121 H         1 UNK         0.3141 
     92 H92       -71.4054   25.1382  -74.6359 H         1 UNK         0.0743 
     93 H93       -74.3251   25.9205  -74.1201 H         1 UNK         0.0784 
     94 H94       -73.6673   24.2884  -74.0439 H         1 UNK         0.0784 
     95 H95       -73.1359   25.5036  -72.8940 H         1 UNK         0.0784 
     96 H96       -73.6082   25.1256  -76.4116 H         1 UNK         0.3213 
     97 H97       -71.6909   25.3034  -79.4372 H         1 UNK         0.0855 
     98 H98       -71.5097   22.9897  -78.5507 H         1 UNK         0.0814 
     99 H99       -72.8394   23.1157  -79.6908 H         1 UNK         0.0814 
    100 H100      -73.1640   23.0547  -77.9596 H         1 UNK         0.0814 
    101 H101      -74.4788   25.1528  -78.3831 H         1 UNK         0.3105 
    102 H102      -75.3222   28.2987  -79.6889 H         1 UNK         0.0547 
    103 H103      -75.5071   26.9901  -81.8131 H         1 UNK         0.0837 
    104 H104      -76.1903   25.6322  -80.9309 H         1 UNK         0.0837 
    105 H105      -77.0680   27.1600  -81.0303 H         1 UNK         0.0837 
    106 H106      -77.0148   26.2919  -78.6540 H         1 UNK         0.3020 
    107 H107      -76.3288   26.7930  -75.1959 H         1 UNK         0.1245 
    108 H108      -78.5913   27.4205  -74.9505 H         1 UNK         0.0781 
    109 H109      -78.9489   27.2076  -76.6307 H         1 UNK         0.0781 
    110 H110      -76.8508   31.0616  -75.0918 H         1 UNK         0.0836 
    111 H111      -75.9400   29.5864  -75.2030 H         1 UNK         0.0836 
    112 H112      -78.2244   25.0872  -76.1741 H         1 UNK         0.3022 
    113 H113      -77.0807   22.5345  -77.5438 H         1 UNK         0.0747 
    114 H114      -75.1528   21.7888  -76.1720 H         1 UNK         0.0793 
    115 H115      -76.0335   22.1311  -74.6888 H         1 UNK         0.0793 
    116 H116      -76.5723   20.8423  -75.7653 H         1 UNK         0.0793 
    117 H117      -78.4680   22.5480  -74.9533 H         1 UNK         0.3047 
    118 H118      -81.4600   23.9231  -76.2192 H         1 UNK         0.0822 
    119 H119      -80.9119   21.0956  -75.1752 H         1 UNK         0.0807 
    120 H120      -81.8040   21.5264  -76.6224 H         1 UNK         0.0807 
    121 H121      -82.4468   21.9542  -75.0450 H         1 UNK         0.0807 
    122 H122      -80.8776   24.7887  -74.3089 H         1 UNK         0.2946 
    123 H123      -80.4651   23.8097  -71.3124 H         1 UNK         0.1144 
    124 H124      -78.1154   23.0251  -71.2088 H         1 UNK         0.0793 
    125 H125      -77.5819   24.3838  -72.1883 H         1 UNK         0.0793 
    126 H126      -78.2331   24.6499  -70.5676 H         1 UNK         0.0793 
    127 H127      -79.2455   26.1654  -72.6007 H         1 UNK         0.2896 
@<TRIPOS>BOND
     1    1    2 1    
     2    1   67 1    
     3    1   68 1    
     4    1   69 1    
     5    2    3 2    
     6    2    4 am   BACKBONE|DICT|INTERRES
     7    4    5 1    
     8    4   70 1    
     9    5    6 1    
    10    5   65 1    
    11    5   71 1    
    12    6    7 1    
    13    6   72 1    
    14    6   73 1    
    15    7    8 1    
    16    8    9 1    
    17    8   74 1    
    18    8   75 1    
    19    9   10 ar   
    20    9   14 ar   
    21   10   11 ar   
    22   10   76 1    
    23   11   12 ar   
    24   11   48 1    
    25   12   13 ar   
    26   12   77 1    
    27   13   14 ar   
    28   13   15 1    
    29   14   78 1    
    30   15   16 1    
    31   15   79 1    
    32   15   80 1    
    33   16   17 1    
    34   17   18 1    
    35   17   81 1    
    36   17   82 1    
    37   18   19 1    
    38   18   22 1    
    39   18   83 1    
    40   19   20 am   BACKBONE|DICT|INTERRES
    41   19   21 2    
    42   20   84 1    
    43   20   85 1    
    44   22   23 am   BACKBONE|DICT|INTERRES
    45   22   86 1    
    46   23   24 2    
    47   23   25 1    
    48   25   26 1    
    49   25   27 1    
    50   25   87 1    
    51   26   88 1    
    52   26   89 1    
    53   26   90 1    
    54   27   28 am   BACKBONE|DICT|INTERRES
    55   27   91 1    
    56   28   29 2    
    57   28   30 1    
    58   30   31 1    
    59   30   32 1    
    60   30   92 1    
    61   31   93 1    
    62   31   94 1    
    63   31   95 1    
    64   32   33 am   BACKBONE|DICT|INTERRES
    65   32   96 1    
    66   33   34 2    
    67   33   35 1    
    68   35   36 1    
    69   35   37 1    
    70   35   97 1    
    71   36   98 1    
    72   36   99 1    
    73   36  100 1    
    74   37   38 am   BACKBONE|DICT|INTERRES
    75   37  101 1    
    76   38   39 2    
    77   38   40 1    
    78   40   41 1    
    79   40   42 1    
    80   40  102 1    
    81   41  103 1    
    82   41  104 1    
    83   41  105 1    
    84   42   43 am   BACKBONE|DICT|INTERRES
    85   42  106 1    
    86   43   44 2    
    87   43   45 1    
    88   45   46 1    
    89   45   49 1    
    90   45  107 1    
    91   46   47 1    
    92   46  108 1    
    93   46  109 1    
    94   47   48 1    
    95   48  110 1    
    96   48  111 1    
    97   49   50 am   BACKBONE|DICT|INTERRES
    98   49  112 1    
    99   50   51 2    
   100   50   52 1    
   101   52   53 1    
   102   52   54 1    
   103   52  113 1    
   104   53  114 1    
   105   53  115 1    
   106   53  116 1    
   107   54   55 am   BACKBONE|DICT|INTERRES
   108   54  117 1    
   109   55   56 2    
   110   55   57 1    
   111   57   58 1    
   112   57   59 1    
   113   57  118 1    
   114   58  119 1    
   115   58  120 1    
   116   58  121 1    
   117   59   60 am   BACKBONE|DICT|INTERRES
   118   59  122 1    
   119   60   61 2    
   120   60   62 1    
   121   62   63 1    
   122   62   64 1    
   123   62  123 1    
   124   63  124 1    
   125   63  125 1    
   126   63  126 1    
   127   64   65 am   BACKBONE|DICT|INTERRES
   128   64  127 1    
   129   65   66 2    
@<TRIPOS>SUBSTRUCTURE
     1 UNK         1 GROUP             0       ****    0 ROOT    
