@<TRIPOS>MOLECULE
3R135
127   129    1
SMALL
USER_CHARGES


@<TRIPOS>ATOM
      1 CA        -81.8776   28.4366  -75.0772 C.3       0 UNK        -0.1998 
      2 C         -81.0702   27.3832  -74.3361 C.2       0 UNK         0.4909 
      3 O         -80.0212   26.9616  -74.8249 O.2       0 UNK        -0.5240 
      4 N         -81.5505   26.9493  -73.1633 N.am      1 UNK        -0.4739 
      5 CA        -80.8683   25.9837  -72.2903 C.3       1 UNK         0.0864 
      6 C6        -81.4948   25.9005  -70.8771 C.3       11 UNK        -0.0881 
      7 S7        -81.7418   27.5275  -70.0886 S.3       11 UNK        -0.2682 
      8 C8        -80.1179   27.8285  -69.3125 C.3       11 UNK         0.0289 
      9 C9        -79.0553   28.3418  -70.2823 C.ar      11 UNK        -0.0687 
     10 C10       -79.3429   29.3745  -71.1841 C.ar      11 UNK        -0.0823 
     11 C11       -78.3504   29.9040  -72.0151 C.ar      11 UNK        -0.0830 
     12 C12       -77.0493   29.4024  -71.9092 C.ar      11 UNK        -0.1021 
     13 C13       -76.7459   28.3494  -71.0406 C.ar      11 UNK        -0.0753 
     14 C14       -77.7569   27.8229  -70.2306 C.ar      11 UNK        -0.0933 
     15 C15       -75.3313   27.7799  -70.9831 C.3       11 UNK         0.0166 
     16 S16       -74.1068   29.0420  -70.4921 S.3       11 UNK        -0.2615 
     17 C17       -72.8452   28.8953  -71.8106 C.3       11 UNK        -0.0865 
     18 CA        -73.3355   29.4308  -73.1859 C.3       10 UNK         0.0862 
     19 C         -73.4047   30.9825  -73.3203 C.2       10 UNK         0.5551 
     20 N         -73.7578   31.4936  -74.4934 N.am      10 UNK        -0.7319 
     21 O         -73.1390   31.7265  -72.3789 O.2       10 UNK        -0.5018 
     22 N         -72.6736   28.7625  -74.3129 N.am      10 UNK        -0.4509 
     23 C         -71.4107   28.9632  -74.7156 C.2       10 UNK         0.4899 
     24 O         -70.6304   29.7481  -74.1737 O.2       10 UNK        -0.4839 
     25 CA        -70.9459   28.1259  -75.9249 C.3       9 UNK         0.0222 
     26 CB        -69.4127   28.1171  -76.1029 C.3       9 UNK        -0.1966 
     27 N         -71.4794   26.7585  -75.9018 N.am      9 UNK        -0.4218 
     28 C         -71.3112   25.8379  -74.9355 C.2       9 UNK         0.5020 
     29 O         -70.5825   25.9989  -73.9551 O.2       9 UNK        -0.5274 
     30 CA        -72.1070   24.5261  -75.0568 C.3       8 UNK         0.0270 
     31 CB        -72.8308   24.1926  -73.7384 C.3       8 UNK        -0.1976 
     32 N         -73.0915   24.5902  -76.1411 N.am      8 UNK        -0.4313 
     33 C         -72.9491   23.9844  -77.3265 C.2       8 UNK         0.5041 
     34 O         -71.9917   23.2661  -77.6179 O.2       8 UNK        -0.5577 
     35 CA        -74.0451   24.2148  -78.3785 C.3       7 UNK         0.0284 
     36 CB        -75.0954   23.0937  -78.3100 C.3       7 UNK        -0.1958 
     37 N         -74.7165   25.5175  -78.3100 N.am      7 UNK        -0.4454 
     38 C         -74.1344   26.7009  -78.5542 C.2       7 UNK         0.5089 
     39 O         -72.9168   26.8552  -78.6464 O.2       7 UNK        -0.5125 
     40 CA        -75.0653   27.9116  -78.7319 C.3       6 UNK         0.0408 
     41 CB        -75.8918   27.7782  -80.0221 C.3       6 UNK        -0.1791 
     42 N         -75.9669   28.0450  -77.5909 N.am      6 UNK        -0.4762 
     43 C         -75.8109   28.9290  -76.5947 C.2       6 UNK         0.5007 
     44 O         -74.9528   29.8132  -76.5850 O.2       6 UNK        -0.5032 
     45 CA        -76.7099   28.7405  -75.3527 C.3       5 UNK         0.0783 
     46 C46       -77.9504   29.6713  -75.3519 C.3       11 UNK        -0.0857 
     47 S47       -77.6383   31.2256  -74.4473 S.3       11 UNK        -0.2512 
     48 C48       -78.7109   31.0462  -72.9709 C.3       11 UNK         0.0225 
     49 N         -77.0539   27.3386  -75.0951 N.am      5 UNK        -0.4615 
     50 C         -76.1521   26.3630  -74.9070 C.2       4 UNK         0.5053 
     51 O         -74.9339   26.5519  -74.8868 O.2       4 UNK        -0.5105 
     52 CA        -76.6771   24.9250  -74.7795 C.3       4 UNK         0.0263 
     53 CB        -76.7706   24.5435  -73.2956 C.3       4 UNK        -0.1981 
     54 N         -77.9633   24.6849  -75.4490 N.am      4 UNK        -0.4224 
     55 C         -78.2108   24.8796  -76.7558 C.2       3 UNK         0.4895 
     56 O         -77.3696   25.3185  -77.5425 O.2       3 UNK        -0.5091 
     57 CA        -79.6274   24.6084  -77.2932 C.3       3 UNK         0.0250 
     58 CB        -79.6062   23.6453  -78.4984 C.3       3 UNK        -0.1996 
     59 N         -80.6091   24.2052  -76.2786 N.am      3 UNK        -0.4254 
     60 C         -80.7382   23.0327  -75.6399 C.2       2 UNK         0.5004 
     61 O         -80.0257   22.0479  -75.8377 O.2       2 UNK        -0.5226 
     62 CA        -81.8421   22.9991  -74.5628 C.3       2 UNK         0.0269 
     63 CB        -81.8369   21.7048  -73.7202 C.3       2 UNK        -0.1926 
     64 N         -81.7965   24.1974  -73.7090 N.am      2 UNK        -0.4687 
     65 C         -80.7784   24.5787  -72.9190 C.2       1 UNK         0.5165 
     66 O         -79.7809   23.8917  -72.7106 O.2       1 UNK        -0.5079 
     67 H67       -81.3011   29.3569  -75.1658 H         1 UNK         0.0900 
     68 H68       -82.8113   28.6687  -74.5654 H         1 UNK         0.0900 
     69 H69       -82.1178   28.0871  -76.0809 H         1 UNK         0.0900 
     70 H70       -82.4051   27.3417  -72.7937 H         1 UNK         0.2959 
     71 H71       -79.8401   26.3350  -72.1768 H         1 UNK         0.1079 
     72 H72       -80.8813   25.2770  -70.2229 H         1 UNK         0.0837 
     73 H73       -82.4716   25.4142  -70.9240 H         1 UNK         0.0837 
     74 H74       -80.2480   28.5774  -68.5294 H         1 UNK         0.0685 
     75 H75       -79.7850   26.9184  -68.8100 H         1 UNK         0.0685 
     76 H76       -80.3441   29.7814  -71.2251 H         1 UNK         0.1434 
     77 H77       -76.2607   29.8473  -72.4920 H         1 UNK         0.1329 
     78 H78       -77.5261   27.0236  -69.5395 H         1 UNK         0.1335 
     79 H79       -75.0828   27.3539  -71.9560 H         1 UNK         0.0680 
     80 H80       -75.2755   26.9539  -70.2724 H         1 UNK         0.0680 
     81 H81       -71.9344   29.4111  -71.5004 H         1 UNK         0.1032 
     82 H82       -72.5730   27.8405  -71.8902 H         1 UNK         0.1032 
     83 H83       -74.3620   29.1017  -73.2836 H         1 UNK         0.0461 
     84 H84       -73.8055   32.4942  -74.5991 H         1 UNK         0.3453 
     85 H85       -74.0148   30.8917  -75.2701 H         1 UNK         0.3453 
     86 H86       -73.2403   28.0880  -74.8114 H         1 UNK         0.2984 
     87 H87       -71.3772   28.6034  -76.8061 H         1 UNK         0.0554 
     88 H88       -69.1179   27.5316  -76.9737 H         1 UNK         0.0847 
     89 H89       -68.9052   27.7020  -75.2314 H         1 UNK         0.0847 
     90 H90       -69.0305   29.1282  -76.2494 H         1 UNK         0.0847 
     91 H91       -72.0678   26.5167  -76.6914 H         1 UNK         0.3141 
     92 H92       -71.3822   23.7318  -75.2466 H         1 UNK         0.0743 
     93 H93       -73.4499   25.0210  -73.3942 H         1 UNK         0.0784 
     94 H94       -73.4675   23.3138  -73.8422 H         1 UNK         0.0784 
     95 H95       -72.1132   23.9793  -72.9450 H         1 UNK         0.0784 
     96 H96       -73.8874   25.1995  -75.9800 H         1 UNK         0.3213 
     97 H97       -73.5617   24.1583  -79.3564 H         1 UNK         0.0855 
     98 H98       -74.6297   22.1144  -78.4304 H         1 UNK         0.0814 
     99 H99       -75.8400   23.1966  -79.0999 H         1 UNK         0.0814 
    100 H100      -75.6206   23.0877  -77.3548 H         1 UNK         0.0814 
    101 H101      -75.7267   25.4866  -78.1746 H         1 UNK         0.3105 
    102 H102      -74.4394   28.8012  -78.8302 H         1 UNK         0.0547 
    103 H103      -76.4929   28.6706  -80.1976 H         1 UNK         0.0837 
    104 H104      -75.2435   27.6498  -80.8900 H         1 UNK         0.0837 
    105 H105      -76.5683   26.9230  -79.9896 H         1 UNK         0.0837 
    106 H106      -76.6620   27.3152  -77.4782 H         1 UNK         0.3020 
    107 H107      -76.0833   29.0211  -74.5148 H         1 UNK         0.1245 
    108 H108      -78.7933   29.1834  -74.8672 H         1 UNK         0.0781 
    109 H109      -78.2908   29.9013  -76.3639 H         1 UNK         0.0781 
    110 H110      -79.7415   30.9320  -73.3113 H         1 UNK         0.0836 
    111 H111      -78.6769   31.9811  -72.4100 H         1 UNK         0.0836 
    112 H112      -78.0433   27.1044  -75.0796 H         1 UNK         0.3022 
    113 H113      -75.9442   24.2684  -75.2504 H         1 UNK         0.0747 
    114 H114      -77.0979   23.5114  -73.1686 H         1 UNK         0.0793 
    115 H115      -77.4655   25.1900  -72.7582 H         1 UNK         0.0793 
    116 H116      -75.8017   24.6365  -72.8040 H         1 UNK         0.0793 
    117 H117      -78.7192   24.3533  -74.8649 H         1 UNK         0.3047 
    118 H118      -79.9808   25.5733  -77.6601 H         1 UNK         0.0822 
    119 H119      -79.1802   22.6757  -78.2392 H         1 UNK         0.0807 
    120 H120      -79.0019   24.0520  -79.3104 H         1 UNK         0.0807 
    121 H121      -80.6082   23.4796  -78.8939 H         1 UNK         0.0807 
    122 H122      -81.2171   24.9538  -75.9763 H         1 UNK         0.2946 
    123 H123      -82.7911   23.0322  -75.1013 H         1 UNK         0.1144 
    124 H124      -80.8895   21.5560  -73.2015 H         1 UNK         0.0793 
    125 H125      -82.6307   21.7145  -72.9734 H         1 UNK         0.0793 
    126 H126      -81.9978   20.8304  -74.3520 H         1 UNK         0.0793 
    127 H127      -82.5720   24.8390  -73.8054 H         1 UNK         0.2896 
@<TRIPOS>BOND
     1    1    2 1    
     2    1   67 1    
     3    1   68 1    
     4    1   69 1    
     5    2    3 2    
     6    2    4 am   BACKBONE|DICT|INTERRES
     7    4    5 1    
     8    4   70 1    
     9    5    6 1    
    10    5   65 1    
    11    5   71 1    
    12    6    7 1    
    13    6   72 1    
    14    6   73 1    
    15    7    8 1    
    16    8    9 1    
    17    8   74 1    
    18    8   75 1    
    19    9   10 ar   
    20    9   14 ar   
    21   10   11 ar   
    22   10   76 1    
    23   11   12 ar   
    24   11   48 1    
    25   12   13 ar   
    26   12   77 1    
    27   13   14 ar   
    28   13   15 1    
    29   14   78 1    
    30   15   16 1    
    31   15   79 1    
    32   15   80 1    
    33   16   17 1    
    34   17   18 1    
    35   17   81 1    
    36   17   82 1    
    37   18   19 1    
    38   18   22 1    
    39   18   83 1    
    40   19   20 am   BACKBONE|DICT|INTERRES
    41   19   21 2    
    42   20   84 1    
    43   20   85 1    
    44   22   23 am   BACKBONE|DICT|INTERRES
    45   22   86 1    
    46   23   24 2    
    47   23   25 1    
    48   25   26 1    
    49   25   27 1    
    50   25   87 1    
    51   26   88 1    
    52   26   89 1    
    53   26   90 1    
    54   27   28 am   BACKBONE|DICT|INTERRES
    55   27   91 1    
    56   28   29 2    
    57   28   30 1    
    58   30   31 1    
    59   30   32 1    
    60   30   92 1    
    61   31   93 1    
    62   31   94 1    
    63   31   95 1    
    64   32   33 am   BACKBONE|DICT|INTERRES
    65   32   96 1    
    66   33   34 2    
    67   33   35 1    
    68   35   36 1    
    69   35   37 1    
    70   35   97 1    
    71   36   98 1    
    72   36   99 1    
    73   36  100 1    
    74   37   38 am   BACKBONE|DICT|INTERRES
    75   37  101 1    
    76   38   39 2    
    77   38   40 1    
    78   40   41 1    
    79   40   42 1    
    80   40  102 1    
    81   41  103 1    
    82   41  104 1    
    83   41  105 1    
    84   42   43 am   BACKBONE|DICT|INTERRES
    85   42  106 1    
    86   43   44 2    
    87   43   45 1    
    88   45   46 1    
    89   45   49 1    
    90   45  107 1    
    91   46   47 1    
    92   46  108 1    
    93   46  109 1    
    94   47   48 1    
    95   48  110 1    
    96   48  111 1    
    97   49   50 am   BACKBONE|DICT|INTERRES
    98   49  112 1    
    99   50   51 2    
   100   50   52 1    
   101   52   53 1    
   102   52   54 1    
   103   52  113 1    
   104   53  114 1    
   105   53  115 1    
   106   53  116 1    
   107   54   55 am   BACKBONE|DICT|INTERRES
   108   54  117 1    
   109   55   56 2    
   110   55   57 1    
   111   57   58 1    
   112   57   59 1    
   113   57  118 1    
   114   58  119 1    
   115   58  120 1    
   116   58  121 1    
   117   59   60 am   BACKBONE|DICT|INTERRES
   118   59  122 1    
   119   60   61 2    
   120   60   62 1    
   121   62   63 1    
   122   62   64 1    
   123   62  123 1    
   124   63  124 1    
   125   63  125 1    
   126   63  126 1    
   127   64   65 am   BACKBONE|DICT|INTERRES
   128   64  127 1    
   129   65   66 2    
@<TRIPOS>SUBSTRUCTURE
     1 UNK         1 GROUP             0       ****    0 ROOT    
