@<TRIPOS>MOLECULE
3R135
127   129    1
SMALL
USER_CHARGES


@<TRIPOS>ATOM
      1 CA        -81.3125   22.4337  -71.7232 C.3       0 UNK        -0.1998 
      2 C         -81.0760   23.9230  -71.9241 C.2       0 UNK         0.4909 
      3 O         -81.8720   24.5810  -72.5927 O.2       0 UNK        -0.5240 
      4 N         -79.9866   24.4480  -71.3550 N.am      1 UNK        -0.4739 
      5 CA        -79.5237   25.8277  -71.5026 C.3       1 UNK         0.0864 
      6 C6        -79.8515   26.6944  -70.2602 C.3       11 UNK        -0.0881 
      7 S7        -81.5462   27.3598  -70.3729 S.3       11 UNK        -0.2682 
      8 C8        -81.2629   29.1442  -70.6269 C.3       11 UNK         0.0289 
      9 C9        -80.2954   29.4531  -71.7652 C.ar      11 UNK        -0.0687 
     10 C10       -80.6457   29.1912  -73.0935 C.ar      11 UNK        -0.0823 
     11 C11       -79.7631   29.5006  -74.1373 C.ar      11 UNK        -0.0830 
     12 C12       -78.5355   30.1003  -73.8317 C.ar      11 UNK        -0.1021 
     13 C13       -78.1631   30.3624  -72.5074 C.ar      11 UNK        -0.0753 
     14 C14       -79.0550   30.0333  -71.4834 C.ar      11 UNK        -0.0933 
     15 C15       -76.8340   31.0260  -72.1320 C.3       11 UNK         0.0166 
     16 S16       -75.4939   30.8584  -73.3635 S.3       11 UNK        -0.2615 
     17 C17       -74.0245   31.1550  -72.3232 C.3       11 UNK        -0.0865 
     18 CA        -72.7672   31.5912  -73.1379 C.3       10 UNK         0.0862 
     19 C         -71.5827   32.0574  -72.2332 C.2       10 UNK         0.5551 
     20 N         -71.8439   32.8671  -71.2150 N.am      10 UNK        -0.7319 
     21 O         -70.4178   31.7371  -72.4651 O.2       10 UNK        -0.5018 
     22 N         -72.3584   30.6146  -74.1676 N.am      10 UNK        -0.4509 
     23 C         -71.9387   29.3601  -73.9570 C.2       10 UNK         0.4899 
     24 O         -71.9346   28.7938  -72.8618 O.2       10 UNK        -0.4839 
     25 CA        -71.4103   28.6080  -75.1846 C.3       9 UNK         0.0222 
     26 CB        -69.9071   28.8707  -75.3842 C.3       9 UNK        -0.1966 
     27 N         -71.6469   27.1757  -75.0032 N.am      9 UNK        -0.4218 
     28 C         -71.8417   26.2868  -75.9858 C.2       9 UNK         0.5020 
     29 O         -71.7789   26.5755  -77.1824 O.2       9 UNK        -0.5274 
     30 CA        -72.1838   24.8417  -75.5850 C.3       8 UNK         0.0270 
     31 CB        -72.6205   24.6704  -74.1141 C.3       8 UNK        -0.1976 
     32 N         -73.2393   24.3364  -76.4649 N.am      8 UNK        -0.4313 
     33 C         -73.2594   23.1315  -77.0433 C.2       8 UNK         0.5041 
     34 O         -72.3723   22.2857  -76.9042 O.2       8 UNK        -0.5577 
     35 CA        -74.5032   22.8246  -77.9037 C.3       7 UNK         0.0284 
     36 CB        -74.4498   21.4333  -78.5715 C.3       7 UNK        -0.1958 
     37 N         -75.7598   22.9974  -77.1573 N.am      7 UNK        -0.4454 
     38 C         -76.1267   22.3623  -76.0332 C.2       7 UNK         0.5089 
     39 O         -75.4441   21.4966  -75.4844 O.2       7 UNK        -0.5125 
     40 CA        -77.4872   22.7295  -75.4128 C.3       6 UNK         0.0408 
     41 CB        -77.4308   22.7619  -73.8739 C.3       6 UNK        -0.1791 
     42 N         -78.0598   23.9852  -75.9194 N.am      6 UNK        -0.4762 
     43 C         -79.3795   24.1932  -76.0624 C.2       6 UNK         0.5007 
     44 O         -80.2278   23.3355  -75.8133 O.2       6 UNK        -0.5032 
     45 CA        -79.8565   25.5728  -76.5640 C.3       5 UNK         0.0783 
     46 C46       -80.4243   26.4147  -75.3929 C.3       11 UNK        -0.0857 
     47 S47       -81.3077   27.9133  -75.9417 S.3       11 UNK        -0.2512 
     48 C48       -80.1031   29.2485  -75.6095 C.3       11 UNK         0.0225 
     49 N         -78.8182   26.2816  -77.3208 N.am      5 UNK        -0.4615 
     50 C         -78.5063   26.0063  -78.5962 C.2       4 UNK         0.5053 
     51 O         -79.0475   25.1090  -79.2424 O.2       4 UNK        -0.5105 
     52 CA        -77.4286   26.8623  -79.2909 C.3       4 UNK         0.0263 
     53 CB        -78.0802   27.8220  -80.3002 C.3       4 UNK        -0.1981 
     54 N         -76.5936   27.6394  -78.3744 N.am      4 UNK        -0.4224 
     55 C         -75.6704   27.1227  -77.5554 C.2       3 UNK         0.4895 
     56 O         -75.4003   25.9223  -77.4994 O.2       3 UNK        -0.5091 
     57 CA        -74.9630   28.0841  -76.5813 C.3       3 UNK         0.0250 
     58 CB        -75.4009   29.5598  -76.7118 C.3       3 UNK        -0.1996 
     59 N         -75.0849   27.6153  -75.1899 N.am      3 UNK        -0.4254 
     60 C         -76.2380   27.3206  -74.5720 C.2       2 UNK         0.5004 
     61 O         -77.3374   27.4742  -75.1065 O.2       2 UNK        -0.5226 
     62 CA        -76.1755   26.6990  -73.1668 C.3       2 UNK         0.0269 
     63 CB        -75.2374   27.4226  -72.1856 C.3       2 UNK        -0.1926 
     64 N         -77.5319   26.6655  -72.6295 N.am      2 UNK        -0.4687 
     65 C         -78.0135   25.7664  -71.7698 C.2       1 UNK         0.5165 
     66 O         -77.3254   24.9089  -71.2097 O.2       1 UNK        -0.5079 
     67 H67       -81.3149   21.9237  -72.6863 H         1 UNK         0.0900 
     68 H68       -82.2780   22.2680  -71.2462 H         1 UNK         0.0900 
     69 H69       -80.5432   21.9781  -71.1000 H         1 UNK         0.0900 
     70 H70       -79.3354   23.8521  -70.8596 H         1 UNK         0.2959 
     71 H71       -79.9862   26.2751  -72.3848 H         1 UNK         0.1079 
     72 H72       -79.7584   26.1109  -69.3425 H         1 UNK         0.0837 
     73 H73       -79.1515   27.5240  -70.1490 H         1 UNK         0.0837 
     74 H74       -82.2202   29.6244  -70.8336 H         1 UNK         0.0685 
     75 H75       -80.9054   29.5745  -69.6901 H         1 UNK         0.0685 
     76 H76       -81.6097   28.7502  -73.3053 H         1 UNK         0.1434 
     77 H77       -77.8662   30.3592  -74.6389 H         1 UNK         0.1329 
     78 H78       -78.7856   30.2434  -70.4572 H         1 UNK         0.1335 
     79 H79       -77.0104   32.0869  -71.9510 H         1 UNK         0.0680 
     80 H80       -76.4846   30.6043  -71.1881 H         1 UNK         0.0680 
     81 H81       -73.8158   30.2568  -71.7405 H         1 UNK         0.1032 
     82 H82       -74.2960   31.9238  -71.5990 H         1 UNK         0.1032 
     83 H83       -73.0433   32.4827  -73.7024 H         1 UNK         0.0461 
     84 H84       -71.0795   33.1845  -70.6393 H         1 UNK         0.3453 
     85 H85       -72.7794   33.1859  -71.0199 H         1 UNK         0.3453 
     86 H86       -72.2940   30.9893  -75.1027 H         1 UNK         0.2984 
     87 H87       -71.9515   28.9625  -76.0635 H         1 UNK         0.0554 
     88 H88       -69.5305   28.3678  -76.2751 H         1 UNK         0.0847 
     89 H89       -69.3221   28.5245  -74.5312 H         1 UNK         0.0847 
     90 H90       -69.7071   29.9362  -75.5052 H         1 UNK         0.0847 
     91 H91       -71.7075   26.8834  -74.0352 H         1 UNK         0.3141 
     92 H92       -71.2692   24.2654  -75.7387 H         1 UNK         0.0743 
     93 H93       -71.8202   24.9389  -73.4235 H         1 UNK         0.0784 
     94 H94       -73.4926   25.2768  -73.8737 H         1 UNK         0.0784 
     95 H95       -72.8783   23.6316  -73.9047 H         1 UNK         0.0784 
     96 H96       -73.9760   24.9925  -76.7205 H         1 UNK         0.3213 
     97 H97       -74.5126   23.5681  -78.7026 H         1 UNK         0.0855 
     98 H98       -73.5645   21.3383  -79.2014 H         1 UNK         0.0814 
     99 H99       -75.3189   21.2648  -79.2071 H         1 UNK         0.0814 
    100 H100      -74.4109   20.6294  -77.8358 H         1 UNK         0.0814 
    101 H101      -76.3762   23.7096  -77.5224 H         1 UNK         0.3105 
    102 H102      -78.1453   21.9066  -75.6993 H         1 UNK         0.0547 
    103 H103      -77.1255   21.7962  -73.4694 H         1 UNK         0.0837 
    104 H104      -76.7160   23.5015  -73.5168 H         1 UNK         0.0837 
    105 H105      -78.4036   22.9935  -73.4418 H         1 UNK         0.0837 
    106 H106      -77.4220   24.7431  -76.1241 H         1 UNK         0.3020 
    107 H107      -80.6866   25.3704  -77.2454 H         1 UNK         0.1245 
    108 H108      -79.6453   26.6812  -74.6826 H         1 UNK         0.0781 
    109 H109      -81.1483   25.8264  -74.8270 H         1 UNK         0.0781 
    110 H110      -80.5023   30.1742  -76.0251 H         1 UNK         0.0836 
    111 H111      -79.1935   29.0335  -76.1713 H         1 UNK         0.0836 
    112 H112      -78.3008   26.9882  -76.8074 H         1 UNK         0.3022 
    113 H113      -76.7790   26.1778  -79.8410 H         1 UNK         0.0747 
    114 H114      -77.3296   28.3822  -80.8583 H         1 UNK         0.0793 
    115 H115      -78.6803   27.2753  -81.0291 H         1 UNK         0.0793 
    116 H116      -78.7394   28.5384  -79.8081 H         1 UNK         0.0793 
    117 H117      -76.7712   28.6321  -78.3292 H         1 UNK         0.3047 
    118 H118      -73.9117   28.0438  -76.8525 H         1 UNK         0.0822 
    119 H119      -74.7865   30.1996  -76.0803 H         1 UNK         0.0807 
    120 H120      -76.4410   29.7105  -76.4229 H         1 UNK         0.0807 
    121 H121      -75.2762   29.9273  -77.7311 H         1 UNK         0.0807 
    122 H122      -74.2199   27.4681  -74.6946 H         1 UNK         0.2946 
    123 H123      -75.8215   25.6757  -73.3002 H         1 UNK         0.1144 
    124 H124      -75.1267   26.8531  -71.2628 H         1 UNK         0.0793 
    125 H125      -75.6227   28.4027  -71.9147 H         1 UNK         0.0793 
    126 H126      -74.2380   27.5558  -72.5957 H         1 UNK         0.0793 
    127 H127      -78.1570   27.3232  -73.0822 H         1 UNK         0.2896 
@<TRIPOS>BOND
     1    1    2 1    
     2    1   67 1    
     3    1   68 1    
     4    1   69 1    
     5    2    3 2    
     6    2    4 am   BACKBONE|DICT|INTERRES
     7    4    5 1    
     8    4   70 1    
     9    5    6 1    
    10    5   65 1    
    11    5   71 1    
    12    6    7 1    
    13    6   72 1    
    14    6   73 1    
    15    7    8 1    
    16    8    9 1    
    17    8   74 1    
    18    8   75 1    
    19    9   10 ar   
    20    9   14 ar   
    21   10   11 ar   
    22   10   76 1    
    23   11   12 ar   
    24   11   48 1    
    25   12   13 ar   
    26   12   77 1    
    27   13   14 ar   
    28   13   15 1    
    29   14   78 1    
    30   15   16 1    
    31   15   79 1    
    32   15   80 1    
    33   16   17 1    
    34   17   18 1    
    35   17   81 1    
    36   17   82 1    
    37   18   19 1    
    38   18   22 1    
    39   18   83 1    
    40   19   20 am   BACKBONE|DICT|INTERRES
    41   19   21 2    
    42   20   84 1    
    43   20   85 1    
    44   22   23 am   BACKBONE|DICT|INTERRES
    45   22   86 1    
    46   23   24 2    
    47   23   25 1    
    48   25   26 1    
    49   25   27 1    
    50   25   87 1    
    51   26   88 1    
    52   26   89 1    
    53   26   90 1    
    54   27   28 am   BACKBONE|DICT|INTERRES
    55   27   91 1    
    56   28   29 2    
    57   28   30 1    
    58   30   31 1    
    59   30   32 1    
    60   30   92 1    
    61   31   93 1    
    62   31   94 1    
    63   31   95 1    
    64   32   33 am   BACKBONE|DICT|INTERRES
    65   32   96 1    
    66   33   34 2    
    67   33   35 1    
    68   35   36 1    
    69   35   37 1    
    70   35   97 1    
    71   36   98 1    
    72   36   99 1    
    73   36  100 1    
    74   37   38 am   BACKBONE|DICT|INTERRES
    75   37  101 1    
    76   38   39 2    
    77   38   40 1    
    78   40   41 1    
    79   40   42 1    
    80   40  102 1    
    81   41  103 1    
    82   41  104 1    
    83   41  105 1    
    84   42   43 am   BACKBONE|DICT|INTERRES
    85   42  106 1    
    86   43   44 2    
    87   43   45 1    
    88   45   46 1    
    89   45   49 1    
    90   45  107 1    
    91   46   47 1    
    92   46  108 1    
    93   46  109 1    
    94   47   48 1    
    95   48  110 1    
    96   48  111 1    
    97   49   50 am   BACKBONE|DICT|INTERRES
    98   49  112 1    
    99   50   51 2    
   100   50   52 1    
   101   52   53 1    
   102   52   54 1    
   103   52  113 1    
   104   53  114 1    
   105   53  115 1    
   106   53  116 1    
   107   54   55 am   BACKBONE|DICT|INTERRES
   108   54  117 1    
   109   55   56 2    
   110   55   57 1    
   111   57   58 1    
   112   57   59 1    
   113   57  118 1    
   114   58  119 1    
   115   58  120 1    
   116   58  121 1    
   117   59   60 am   BACKBONE|DICT|INTERRES
   118   59  122 1    
   119   60   61 2    
   120   60   62 1    
   121   62   63 1    
   122   62   64 1    
   123   62  123 1    
   124   63  124 1    
   125   63  125 1    
   126   63  126 1    
   127   64   65 am   BACKBONE|DICT|INTERRES
   128   64  127 1    
   129   65   66 2    
@<TRIPOS>SUBSTRUCTURE
     1 UNK         1 GROUP             0       ****    0 ROOT    
