@<TRIPOS>MOLECULE
3R135
127   129    1
SMALL
USER_CHARGES


@<TRIPOS>ATOM
      1 CA        -83.3130   26.9177  -71.2129 C.3       0 UNK        -0.1998 
      2 C         -83.4071   27.3135  -72.6788 C.2       0 UNK         0.4909 
      3 O         -84.4820   27.6893  -73.1470 O.2       0 UNK        -0.5240 
      4 N         -82.2894   27.2306  -73.4049 N.am      1 UNK        -0.4739 
      5 CA        -82.1615   27.5323  -74.8268 C.3       1 UNK         0.0864 
      6 C6        -82.1668   29.0618  -75.1264 C.3       11 UNK        -0.0881 
      7 S7        -80.6183   29.9824  -74.8014 S.3       11 UNK        -0.2682 
      8 C8        -80.6935   30.3099  -73.0124 C.3       11 UNK         0.0289 
      9 C9        -79.4194   29.8425  -72.3205 C.ar      11 UNK        -0.0687 
     10 C10       -79.3323   28.5461  -71.8069 C.ar      11 UNK        -0.0823 
     11 C11       -78.1669   28.1015  -71.1776 C.ar      11 UNK        -0.0830 
     12 C12       -77.0810   28.9713  -71.0497 C.ar      11 UNK        -0.1021 
     13 C13       -77.1500   30.2706  -71.5631 C.ar      11 UNK        -0.0753 
     14 C14       -78.3216   30.7005  -72.1973 C.ar      11 UNK        -0.0933 
     15 C15       -75.9672   31.2175  -71.4197 C.3       11 UNK         0.0166 
     16 S16       -74.7351   30.9668  -72.7360 S.3       11 UNK        -0.2615 
     17 C17       -73.8368   29.4983  -72.1238 C.3       11 UNK        -0.0865 
     18 CA        -72.3983   29.3926  -72.6994 C.3       10 UNK         0.0862 
     19 C         -71.5775   28.2475  -72.0355 C.2       10 UNK         0.5551 
     20 N         -70.7935   27.4693  -72.7742 N.am      10 UNK        -0.7319 
     21 O         -71.6355   28.0705  -70.8211 O.2       10 UNK        -0.5018 
     22 N         -72.4139   29.2919  -74.1659 N.am      10 UNK        -0.4509 
     23 C         -71.7328   30.0795  -75.0050 C.2       10 UNK         0.4899 
     24 O         -71.0391   31.0312  -74.6416 O.2       10 UNK        -0.4839 
     25 CA        -71.8486   29.7502  -76.5072 C.3       9 UNK         0.0222 
     26 CB        -70.6945   30.3479  -77.3402 C.3       9 UNK        -0.1966 
     27 N         -72.0019   28.3182  -76.7959 N.am      9 UNK        -0.4218 
     28 C         -71.1547   27.3241  -76.4829 C.2       9 UNK         0.5020 
     29 O         -70.1210   27.4982  -75.8347 O.2       9 UNK        -0.5274 
     30 CA        -71.5169   25.8949  -76.9434 C.3       8 UNK         0.0270 
     31 CB        -71.1468   24.8492  -75.8752 C.3       8 UNK        -0.1976 
     32 N         -72.9357   25.7439  -77.2730 N.am      8 UNK        -0.4313 
     33 C         -73.5056   26.0252  -78.4526 C.2       8 UNK         0.5041 
     34 O         -72.8751   26.3629  -79.4542 O.2       8 UNK        -0.5577 
     35 CA        -75.0455   26.0032  -78.4973 C.3       7 UNK         0.0284 
     36 CB        -75.5731   24.5943  -78.8100 C.3       7 UNK        -0.1958 
     37 N         -75.6390   26.4962  -77.2492 N.am      7 UNK        -0.4454 
     38 C         -75.5446   27.7639  -76.8189 C.2       7 UNK         0.5089 
     39 O         -75.0248   28.6668  -77.4736 O.2       7 UNK        -0.5125 
     40 CA        -76.0636   28.0703  -75.4040 C.3       6 UNK         0.0408 
     41 CB        -77.4563   28.7009  -75.4555 C.3       6 UNK        -0.1791 
     42 N         -76.0796   26.8965  -74.5250 N.am      6 UNK        -0.4762 
     43 C         -74.9660   26.3351  -74.0375 C.2       6 UNK         0.5007 
     44 O         -73.8349   26.7432  -74.3039 O.2       6 UNK        -0.5032 
     45 CA        -75.1340   25.0947  -73.1406 C.3       5 UNK         0.0783 
     46 C46       -75.8584   25.4123  -71.8047 C.3       11 UNK        -0.0857 
     47 S47       -77.6826   25.4789  -71.9217 S.3       11 UNK        -0.2512 
     48 C48       -78.1009   26.6858  -70.6253 C.3       11 UNK         0.0225 
     49 N         -75.7165   23.9477  -73.8477 N.am      5 UNK        -0.4615 
     50 C         -75.2364   23.3750  -74.9583 C.2       4 UNK         0.5053 
     51 O         -74.2515   23.7911  -75.5642 O.2       4 UNK        -0.5105 
     52 CA        -75.9749   22.1438  -75.5144 C.3       4 UNK         0.0263 
     53 CB        -75.5231   20.8543  -74.8018 C.3       4 UNK        -0.1981 
     54 N         -77.4377   22.2765  -75.5426 N.am      4 UNK        -0.4224 
     55 C         -78.3014   22.3238  -74.5197 C.2       3 UNK         0.4895 
     56 O         -77.9714   22.2254  -73.3369 O.2       3 UNK        -0.5091 
     57 CA        -79.7701   22.5878  -74.8957 C.3       3 UNK         0.0250 
     58 CB        -80.7107   22.5439  -73.6766 C.3       3 UNK        -0.1996 
     59 N         -79.9065   23.8932  -75.5415 N.am      3 UNK        -0.4254 
     60 C         -79.6369   24.1857  -76.8190 C.2       2 UNK         0.5004 
     61 O         -79.2471   23.3392  -77.6255 O.2       2 UNK        -0.5226 
     62 CA        -79.7918   25.6610  -77.2613 C.3       2 UNK         0.0269 
     63 CB        -79.9435   25.8008  -78.7873 C.3       2 UNK        -0.1926 
     64 N         -80.8878   26.3954  -76.6064 N.am      2 UNK        -0.4687 
     65 C         -80.9119   26.7831  -75.3240 C.2       1 UNK         0.5165 
     66 O         -80.0023   26.5273  -74.5293 O.2       1 UNK        -0.5079 
     67 H67       -83.5440   27.7730  -70.5785 H         1 UNK         0.0900 
     68 H68       -84.0277   26.1255  -70.9913 H         1 UNK         0.0900 
     69 H69       -82.3181   26.5587  -70.9498 H         1 UNK         0.0900 
     70 H70       -81.4324   26.8641  -73.0090 H         1 UNK         0.2959 
     71 H71       -83.0230   27.0843  -75.3276 H         1 UNK         0.1079 
     72 H72       -82.3906   29.2046  -76.1846 H         1 UNK         0.0837 
     73 H73       -82.9869   29.5521  -74.5999 H         1 UNK         0.0837 
     74 H74       -80.8357   31.3798  -72.8542 H         1 UNK         0.0685 
     75 H75       -81.5611   29.8213  -72.5685 H         1 UNK         0.0685 
     76 H76       -80.1697   27.8737  -71.9027 H         1 UNK         0.1434 
     77 H77       -76.1818   28.6375  -70.5516 H         1 UNK         0.1329 
     78 H78       -78.3786   31.7026  -72.5999 H         1 UNK         0.1335 
     79 H79       -75.5022   31.0995  -70.4399 H         1 UNK         0.0680 
     80 H80       -76.3129   32.2514  -71.4639 H         1 UNK         0.0680 
     81 H81       -73.7998   29.5499  -71.0343 H         1 UNK         0.1032 
     82 H82       -74.4170   28.6092  -72.3667 H         1 UNK         0.1032 
     83 H83       -71.8767   30.3050  -72.4061 H         1 UNK         0.0461 
     84 H84       -70.2641   26.7391  -72.3263 H         1 UNK         0.3453 
     85 H85       -70.7063   27.6158  -73.7721 H         1 UNK         0.3453 
     86 H86       -72.9148   28.4868  -74.5288 H         1 UNK         0.2984 
     87 H87       -72.7723   30.2230  -76.8431 H         1 UNK         0.0554 
     88 H88       -70.6606   31.4337  -77.2429 H         1 UNK         0.0847 
     89 H89       -70.8125   30.1243  -78.4004 H         1 UNK         0.0847 
     90 H90       -69.7252   29.9628  -77.0216 H         1 UNK         0.0847 
     91 H91       -72.8484   28.0748  -77.2950 H         1 UNK         0.3141 
     92 H92       -70.9226   25.6884  -77.8356 H         1 UNK         0.0743 
     93 H93       -70.0774   24.8611  -75.6615 H         1 UNK         0.0784 
     94 H94       -71.6712   25.0339  -74.9365 H         1 UNK         0.0784 
     95 H95       -71.3981   23.8406  -76.2039 H         1 UNK         0.0784 
     96 H96       -73.5256   25.4117  -76.5150 H         1 UNK         0.3213 
     97 H97       -75.3632   26.6694  -79.3027 H         1 UNK         0.0855 
     98 H98       -75.2411   23.8635  -78.0743 H         1 UNK         0.0814 
     99 H99       -75.2138   24.2561  -79.7828 H         1 UNK         0.0814 
    100 H100      -76.6625   24.5710  -78.8423 H         1 UNK         0.0814 
    101 H101      -76.0438   25.8142  -76.6260 H         1 UNK         0.3105 
    102 H102      -75.3892   28.8082  -74.9641 H         1 UNK         0.0547 
    103 H103      -77.8147   28.9274  -74.4529 H         1 UNK         0.0837 
    104 H104      -77.4418   29.6379  -76.0133 H         1 UNK         0.0837 
    105 H105      -78.1863   28.0503  -75.9315 H         1 UNK         0.0837 
    106 H106      -76.9801   26.5388  -74.2306 H         1 UNK         0.3020 
    107 H107      -74.1165   24.7943  -72.8791 H         1 UNK         0.1245 
    108 H108      -75.4796   26.3410  -71.3740 H         1 UNK         0.0781 
    109 H109      -75.6162   24.6365  -71.0767 H         1 UNK         0.0781 
    110 H110      -77.3867   26.6195  -69.8032 H         1 UNK         0.0836 
    111 H111      -79.0697   26.4174  -70.2015 H         1 UNK         0.0836 
    112 H112      -76.5421   23.5316  -73.4251 H         1 UNK         0.3022 
    113 H113      -75.6764   22.0488  -76.5593 H         1 UNK         0.0747 
    114 H114      -76.0028   19.9750  -75.2315 H         1 UNK         0.0793 
    115 H115      -74.4455   20.7162  -74.9001 H         1 UNK         0.0793 
    116 H116      -75.7481   20.8721  -73.7352 H         1 UNK         0.0793 
    117 H117      -77.8392   22.4273  -76.4639 H         1 UNK         0.3047 
    118 H118      -80.0809   21.8066  -75.5929 H         1 UNK         0.0822 
    119 H119      -80.6521   21.5784  -73.1724 H         1 UNK         0.0807 
    120 H120      -81.7495   22.6926  -73.9716 H         1 UNK         0.0807 
    121 H121      -80.4572   23.3117  -72.9438 H         1 UNK         0.0807 
    122 H122      -80.1048   24.6800  -74.9304 H         1 UNK         0.2946 
    123 H123      -78.8536   26.1446  -76.9865 H         1 UNK         0.1144 
    124 H124      -79.9835   26.8478  -79.0884 H         1 UNK         0.0793 
    125 H125      -80.8491   25.3113  -79.1473 H         1 UNK         0.0793 
    126 H126      -79.0991   25.3523  -79.3126 H         1 UNK         0.0793 
    127 H127      -81.6837   26.6109  -77.1902 H         1 UNK         0.2896 
@<TRIPOS>BOND
     1    1    2 1    
     2    1   67 1    
     3    1   68 1    
     4    1   69 1    
     5    2    3 2    
     6    2    4 am   BACKBONE|DICT|INTERRES
     7    4    5 1    
     8    4   70 1    
     9    5    6 1    
    10    5   65 1    
    11    5   71 1    
    12    6    7 1    
    13    6   72 1    
    14    6   73 1    
    15    7    8 1    
    16    8    9 1    
    17    8   74 1    
    18    8   75 1    
    19    9   10 ar   
    20    9   14 ar   
    21   10   11 ar   
    22   10   76 1    
    23   11   12 ar   
    24   11   48 1    
    25   12   13 ar   
    26   12   77 1    
    27   13   14 ar   
    28   13   15 1    
    29   14   78 1    
    30   15   16 1    
    31   15   79 1    
    32   15   80 1    
    33   16   17 1    
    34   17   18 1    
    35   17   81 1    
    36   17   82 1    
    37   18   19 1    
    38   18   22 1    
    39   18   83 1    
    40   19   20 am   BACKBONE|DICT|INTERRES
    41   19   21 2    
    42   20   84 1    
    43   20   85 1    
    44   22   23 am   BACKBONE|DICT|INTERRES
    45   22   86 1    
    46   23   24 2    
    47   23   25 1    
    48   25   26 1    
    49   25   27 1    
    50   25   87 1    
    51   26   88 1    
    52   26   89 1    
    53   26   90 1    
    54   27   28 am   BACKBONE|DICT|INTERRES
    55   27   91 1    
    56   28   29 2    
    57   28   30 1    
    58   30   31 1    
    59   30   32 1    
    60   30   92 1    
    61   31   93 1    
    62   31   94 1    
    63   31   95 1    
    64   32   33 am   BACKBONE|DICT|INTERRES
    65   32   96 1    
    66   33   34 2    
    67   33   35 1    
    68   35   36 1    
    69   35   37 1    
    70   35   97 1    
    71   36   98 1    
    72   36   99 1    
    73   36  100 1    
    74   37   38 am   BACKBONE|DICT|INTERRES
    75   37  101 1    
    76   38   39 2    
    77   38   40 1    
    78   40   41 1    
    79   40   42 1    
    80   40  102 1    
    81   41  103 1    
    82   41  104 1    
    83   41  105 1    
    84   42   43 am   BACKBONE|DICT|INTERRES
    85   42  106 1    
    86   43   44 2    
    87   43   45 1    
    88   45   46 1    
    89   45   49 1    
    90   45  107 1    
    91   46   47 1    
    92   46  108 1    
    93   46  109 1    
    94   47   48 1    
    95   48  110 1    
    96   48  111 1    
    97   49   50 am   BACKBONE|DICT|INTERRES
    98   49  112 1    
    99   50   51 2    
   100   50   52 1    
   101   52   53 1    
   102   52   54 1    
   103   52  113 1    
   104   53  114 1    
   105   53  115 1    
   106   53  116 1    
   107   54   55 am   BACKBONE|DICT|INTERRES
   108   54  117 1    
   109   55   56 2    
   110   55   57 1    
   111   57   58 1    
   112   57   59 1    
   113   57  118 1    
   114   58  119 1    
   115   58  120 1    
   116   58  121 1    
   117   59   60 am   BACKBONE|DICT|INTERRES
   118   59  122 1    
   119   60   61 2    
   120   60   62 1    
   121   62   63 1    
   122   62   64 1    
   123   62  123 1    
   124   63  124 1    
   125   63  125 1    
   126   63  126 1    
   127   64   65 am   BACKBONE|DICT|INTERRES
   128   64  127 1    
   129   65   66 2    
@<TRIPOS>SUBSTRUCTURE
     1 UNK         1 GROUP             0       ****    0 ROOT    
