@<TRIPOS>MOLECULE
3R135
127   129    1
SMALL
USER_CHARGES


@<TRIPOS>ATOM
      1 CA        -81.3834   31.3994  -74.4125 C.3       0 UNK        -0.1998 
      2 C         -80.2829   30.4624  -73.9396 C.2       0 UNK         0.4909 
      3 O         -79.1081   30.8279  -73.9807 O.2       0 UNK        -0.5240 
      4 N         -80.6516   29.2524  -73.4996 N.am      1 UNK        -0.4739 
      5 CA        -79.7484   28.2086  -72.9986 C.3       1 UNK         0.0864 
      6 C6        -80.4936   27.2207  -72.0604 C.3       11 UNK        -0.0881 
      7 S7        -80.8436   27.9931  -70.4446 S.3       11 UNK        -0.2682 
      8 C8        -79.7186   27.0844  -69.3259 C.3       11 UNK         0.0289 
      9 C9        -78.2827   27.0132  -69.8376 C.ar      11 UNK        -0.0687 
     10 C10       -77.6800   25.7715  -70.0684 C.ar      11 UNK        -0.0823 
     11 C11       -76.3723   25.6918  -70.5595 C.ar      11 UNK        -0.0830 
     12 C12       -75.6665   26.8712  -70.8168 C.ar      11 UNK        -0.1021 
     13 C13       -76.2651   28.1169  -70.6122 C.ar      11 UNK        -0.0753 
     14 C14       -77.5633   28.1826  -70.0994 C.ar      11 UNK        -0.0933 
     15 C15       -75.5278   29.3917  -70.9827 C.3       11 UNK         0.0166 
     16 S16       -75.7783   29.7765  -72.7424 S.3       11 UNK        -0.2615 
     17 C17       -75.2528   31.5204  -72.7782 C.3       11 UNK        -0.0865 
     18 CA        -74.9923   32.0440  -74.2147 C.3       10 UNK         0.0862 
     19 C         -74.7607   33.5848  -74.1946 C.2       10 UNK         0.5551 
     20 N         -73.5715   34.0852  -74.5081 N.am      10 UNK        -0.7319 
     21 O         -75.6804   34.3392  -73.8879 O.2       10 UNK        -0.5018 
     22 N         -73.9410   31.2654  -74.8942 N.am      10 UNK        -0.4509 
     23 C         -73.6955   31.2861  -76.2119 C.2       10 UNK         0.4899 
     24 O         -74.3539   31.9388  -77.0215 O.2       10 UNK        -0.4839 
     25 CA        -72.5073   30.4511  -76.7204 C.3       9 UNK         0.0222 
     26 CB        -71.2813   31.3528  -76.9427 C.3       9 UNK        -0.1966 
     27 N         -72.1424   29.3592  -75.8123 N.am      9 UNK        -0.4218 
     28 C         -72.7218   28.1528  -75.8143 C.2       9 UNK         0.5020 
     29 O         -73.6126   27.8077  -76.5944 O.2       9 UNK        -0.5274 
     30 CA        -72.2272   27.1602  -74.7603 C.3       8 UNK         0.0270 
     31 CB        -73.0317   27.2977  -73.4564 C.3       8 UNK        -0.1976 
     32 N         -72.3821   25.8146  -75.3014 N.am      8 UNK        -0.4313 
     33 C         -71.6413   24.7513  -74.9690 C.2       8 UNK         0.5041 
     34 O         -70.7424   24.7895  -74.1265 O.2       8 UNK        -0.5577 
     35 CA        -71.9475   23.4282  -75.6929 C.3       7 UNK         0.0284 
     36 CB        -71.6681   22.1942  -74.8120 C.3       7 UNK        -0.1958 
     37 N         -73.3321   23.3868  -76.1643 N.am      7 UNK        -0.4454 
     38 C         -73.7628   22.7754  -77.2745 C.2       7 UNK         0.5089 
     39 O         -73.0115   22.2152  -78.0744 O.2       7 UNK        -0.5125 
     40 CA        -75.2824   22.8035  -77.5524 C.3       6 UNK         0.0408 
     41 CB        -75.7940   21.4759  -78.1489 C.3       6 UNK        -0.1791 
     42 N         -76.1043   23.2110  -76.4039 N.am      6 UNK        -0.4762 
     43 C         -76.2317   22.5835  -75.2225 C.2       6 UNK         0.5007 
     44 O         -75.6767   21.5210  -74.9408 O.2       6 UNK        -0.5032 
     45 CA        -77.1252   23.2756  -74.1754 C.3       5 UNK         0.0783 
     46 C46       -76.4455   24.5296  -73.5719 C.3       11 UNK        -0.0857 
     47 S47       -75.0207   24.1603  -72.4947 S.3       11 UNK        -0.2512 
     48 C48       -75.7372   24.3282  -70.8216 C.3       11 UNK         0.0225 
     49 N         -78.4321   23.6280  -74.7272 N.am      5 UNK        -0.4615 
     50 C         -79.3631   22.7775  -75.1763 C.2       4 UNK         0.5053 
     51 O         -79.2482   21.5522  -75.1568 O.2       4 UNK        -0.5105 
     52 CA        -80.6454   23.4108  -75.7366 C.3       4 UNK         0.0263 
     53 CB        -81.6334   23.7216  -74.5998 C.3       4 UNK        -0.1981 
     54 N         -80.3496   24.6420  -76.4730 N.am      4 UNK        -0.4224 
     55 C         -80.0569   24.6912  -77.7794 C.2       3 UNK         0.4895 
     56 O         -80.0802   23.7105  -78.5241 O.2       3 UNK        -0.5091 
     57 CA        -79.6786   26.0640  -78.3667 C.3       3 UNK         0.0250 
     58 CB        -80.9254   26.7703  -78.9234 C.3       3 UNK        -0.1996 
     59 N         -79.0025   26.9565  -77.4205 N.am      3 UNK        -0.4254 
     60 C         -77.7783   26.7482  -76.9162 C.2       2 UNK         0.5004 
     61 O         -77.0882   25.7610  -77.1686 O.2       2 UNK        -0.5226 
     62 CA        -77.2510   27.8007  -75.9273 C.3       2 UNK         0.0269 
     63 CB        -76.7377   29.0337  -76.6856 C.3       2 UNK        -0.1926 
     64 N         -78.2016   28.2431  -74.8995 N.am      2 UNK        -0.4687 
     65 C         -79.0208   27.4904  -74.1530 C.2       1 UNK         0.5165 
     66 O         -79.2204   26.2919  -74.3526 O.2       1 UNK        -0.5079 
     67 H67       -81.3732   32.3158  -73.8231 H         1 UNK         0.0900 
     68 H68       -82.3713   30.9483  -74.3211 H         1 UNK         0.0900 
     69 H69       -81.2263   31.6646  -75.4577 H         1 UNK         0.0900 
     70 H70       -81.6318   29.0089  -73.4996 H         1 UNK         0.2959 
     71 H71       -78.9590   28.6918  -72.4194 H         1 UNK         0.1079 
     72 H72       -81.4314   26.8905  -72.5103 H         1 UNK         0.0837 
     73 H73       -79.9152   26.3104  -71.8931 H         1 UNK         0.0837 
     74 H74       -79.7239   27.5707  -68.3496 H         1 UNK         0.0685 
     75 H75       -80.1226   26.0827  -69.1710 H         1 UNK         0.0685 
     76 H76       -78.2347   24.8639  -69.8730 H         1 UNK         0.1434 
     77 H77       -74.6604   26.8184  -71.2065 H         1 UNK         0.1329 
     78 H78       -78.0312   29.1447  -69.9401 H         1 UNK         0.1335 
     79 H79       -74.4607   29.2875  -70.7800 H         1 UNK         0.0680 
     80 H80       -75.8841   30.2214  -70.3699 H         1 UNK         0.0680 
     81 H81       -74.3590   31.6402  -72.1630 H         1 UNK         0.1032 
     82 H82       -76.0385   32.1048  -72.2947 H         1 UNK         0.1032 
     83 H83       -75.9122   31.8950  -74.7840 H         1 UNK         0.0461 
     84 H84       -72.8121   33.4751  -74.7618 H         1 UNK         0.3453 
     85 H85       -73.4357   35.0838  -74.4933 H         1 UNK         0.3453 
     86 H86       -73.3652   30.6888  -74.3011 H         1 UNK         0.2984 
     87 H87       -72.7930   30.0302  -77.6871 H         1 UNK         0.0554 
     88 H88       -70.4515   30.7938  -77.3756 H         1 UNK         0.0847 
     89 H89       -70.9332   31.8045  -76.0130 H         1 UNK         0.0847 
     90 H90       -71.5144   32.1657  -77.6321 H         1 UNK         0.0847 
     91 H91       -71.4060   29.5465  -75.1462 H         1 UNK         0.3141 
     92 H92       -71.1702   27.3532  -74.5636 H         1 UNK         0.0743 
     93 H93       -72.9214   28.2937  -73.0265 H         1 UNK         0.0784 
     94 H94       -74.0968   27.1296  -73.6235 H         1 UNK         0.0784 
     95 H95       -72.6946   26.5819  -72.7065 H         1 UNK         0.0784 
     96 H96       -73.0490   25.7538  -76.0618 H         1 UNK         0.3213 
     97 H97       -71.2751   23.3961  -76.5528 H         1 UNK         0.0855 
     98 H98       -70.6281   22.1684  -74.4844 H         1 UNK         0.0814 
     99 H99       -71.8564   21.2676  -75.3545 H         1 UNK         0.0814 
    100 H100      -72.2950   22.1924  -73.9193 H         1 UNK         0.0814 
    101 H101      -74.0229   23.8021  -75.5551 H         1 UNK         0.3105 
    102 H102      -75.4307   23.5781  -78.3061 H         1 UNK         0.0547 
    103 H103      -75.2949   21.2515  -79.0922 H         1 UNK         0.0837 
    104 H104      -75.6140   20.6342  -77.4798 H         1 UNK         0.0837 
    105 H105      -76.8639   21.5200  -78.3532 H         1 UNK         0.0837 
    106 H106      -76.5971   24.0937  -76.5393 H         1 UNK         0.3020 
    107 H107      -77.3030   22.5579  -73.3713 H         1 UNK         0.1245 
    108 H108      -77.1771   25.0993  -72.9993 H         1 UNK         0.0781 
    109 H109      -76.1107   25.2083  -74.3575 H         1 UNK         0.0781 
    110 H110      -74.9499   24.1615  -70.0855 H         1 UNK         0.0836 
    111 H111      -76.4651   23.5282  -70.6780 H         1 UNK         0.0836 
    112 H112      -78.6586   24.6199  -74.7275 H         1 UNK         0.3022 
    113 H113      -81.1160   22.6866  -76.4053 H         1 UNK         0.0747 
    114 H114      -82.5646   24.1350  -74.9874 H         1 UNK         0.0793 
    115 H115      -81.8864   22.8166  -74.0459 H         1 UNK         0.0793 
    116 H116      -81.2217   24.4361  -73.8858 H         1 UNK         0.0793 
    117 H117      -80.2365   25.4827  -75.9176 H         1 UNK         0.3047 
    118 H118      -78.9918   25.8814  -79.1962 H         1 UNK         0.0822 
    119 H119      -80.6633   27.7000  -79.4288 H         1 UNK         0.0807 
    120 H120      -81.6428   27.0051  -78.1360 H         1 UNK         0.0807 
    121 H121      -81.4372   26.1410  -79.6531 H         1 UNK         0.0807 
    122 H122      -79.5002   27.7874  -77.1356 H         1 UNK         0.2946 
    123 H123      -76.4023   27.3557  -75.4046 H         1 UNK         0.1144 
    124 H124      -76.0185   28.7522  -77.4561 H         1 UNK         0.0793 
    125 H125      -76.2316   29.7221  -76.0103 H         1 UNK         0.0793 
    126 H126      -77.5465   29.5783  -77.1738 H         1 UNK         0.0793 
    127 H127      -78.1667   29.2299  -74.6576 H         1 UNK         0.2896 
@<TRIPOS>BOND
     1    1    2 1    
     2    1   67 1    
     3    1   68 1    
     4    1   69 1    
     5    2    3 2    
     6    2    4 am   BACKBONE|DICT|INTERRES
     7    4    5 1    
     8    4   70 1    
     9    5    6 1    
    10    5   65 1    
    11    5   71 1    
    12    6    7 1    
    13    6   72 1    
    14    6   73 1    
    15    7    8 1    
    16    8    9 1    
    17    8   74 1    
    18    8   75 1    
    19    9   10 ar   
    20    9   14 ar   
    21   10   11 ar   
    22   10   76 1    
    23   11   12 ar   
    24   11   48 1    
    25   12   13 ar   
    26   12   77 1    
    27   13   14 ar   
    28   13   15 1    
    29   14   78 1    
    30   15   16 1    
    31   15   79 1    
    32   15   80 1    
    33   16   17 1    
    34   17   18 1    
    35   17   81 1    
    36   17   82 1    
    37   18   19 1    
    38   18   22 1    
    39   18   83 1    
    40   19   20 am   BACKBONE|DICT|INTERRES
    41   19   21 2    
    42   20   84 1    
    43   20   85 1    
    44   22   23 am   BACKBONE|DICT|INTERRES
    45   22   86 1    
    46   23   24 2    
    47   23   25 1    
    48   25   26 1    
    49   25   27 1    
    50   25   87 1    
    51   26   88 1    
    52   26   89 1    
    53   26   90 1    
    54   27   28 am   BACKBONE|DICT|INTERRES
    55   27   91 1    
    56   28   29 2    
    57   28   30 1    
    58   30   31 1    
    59   30   32 1    
    60   30   92 1    
    61   31   93 1    
    62   31   94 1    
    63   31   95 1    
    64   32   33 am   BACKBONE|DICT|INTERRES
    65   32   96 1    
    66   33   34 2    
    67   33   35 1    
    68   35   36 1    
    69   35   37 1    
    70   35   97 1    
    71   36   98 1    
    72   36   99 1    
    73   36  100 1    
    74   37   38 am   BACKBONE|DICT|INTERRES
    75   37  101 1    
    76   38   39 2    
    77   38   40 1    
    78   40   41 1    
    79   40   42 1    
    80   40  102 1    
    81   41  103 1    
    82   41  104 1    
    83   41  105 1    
    84   42   43 am   BACKBONE|DICT|INTERRES
    85   42  106 1    
    86   43   44 2    
    87   43   45 1    
    88   45   46 1    
    89   45   49 1    
    90   45  107 1    
    91   46   47 1    
    92   46  108 1    
    93   46  109 1    
    94   47   48 1    
    95   48  110 1    
    96   48  111 1    
    97   49   50 am   BACKBONE|DICT|INTERRES
    98   49  112 1    
    99   50   51 2    
   100   50   52 1    
   101   52   53 1    
   102   52   54 1    
   103   52  113 1    
   104   53  114 1    
   105   53  115 1    
   106   53  116 1    
   107   54   55 am   BACKBONE|DICT|INTERRES
   108   54  117 1    
   109   55   56 2    
   110   55   57 1    
   111   57   58 1    
   112   57   59 1    
   113   57  118 1    
   114   58  119 1    
   115   58  120 1    
   116   58  121 1    
   117   59   60 am   BACKBONE|DICT|INTERRES
   118   59  122 1    
   119   60   61 2    
   120   60   62 1    
   121   62   63 1    
   122   62   64 1    
   123   62  123 1    
   124   63  124 1    
   125   63  125 1    
   126   63  126 1    
   127   64   65 am   BACKBONE|DICT|INTERRES
   128   64  127 1    
   129   65   66 2    
@<TRIPOS>SUBSTRUCTURE
     1 UNK         1 GROUP             0       ****    0 ROOT    
