@<TRIPOS>MOLECULE
3R135
127   129    1
SMALL
USER_CHARGES


@<TRIPOS>ATOM
      1 CA        -83.1876   27.4970  -70.4920 C.3       0 UNK        -0.1998 
      2 C         -83.5446   27.5232  -71.9705 C.2       0 UNK         0.4909 
      3 O         -84.6698   27.1837  -72.3371 O.2       0 UNK        -0.5240 
      4 N         -82.5922   27.9224  -72.8231 N.am      1 UNK        -0.4739 
      5 CA        -82.7398   27.9840  -74.2838 C.3       1 UNK         0.0864 
      6 C6        -81.7303   28.9772  -74.9196 C.3       11 UNK        -0.0881 
      7 S7        -79.9809   28.5736  -74.5817 S.3       11 UNK        -0.2682 
      8 C8        -79.5626   29.7840  -73.2904 C.3       11 UNK         0.0289 
      9 C9        -78.3443   29.3381  -72.4964 C.ar      11 UNK        -0.0687 
     10 C10       -78.4026   28.1626  -71.7429 C.ar      11 UNK        -0.0823 
     11 C11       -77.3030   27.7422  -70.9927 C.ar      11 UNK        -0.0830 
     12 C12       -76.1434   28.5231  -70.9761 C.ar      11 UNK        -0.1021 
     13 C13       -76.0730   29.7065  -71.7188 C.ar      11 UNK        -0.0753 
     14 C14       -77.1737   30.1036  -72.4868 C.ar      11 UNK        -0.0933 
     15 C15       -74.8288   30.5806  -71.6473 C.3       11 UNK         0.0166 
     16 S16       -73.3841   29.8062  -72.4392 S.3       11 UNK        -0.2615 
     17 C17       -72.1380   31.1207  -72.1965 C.3       11 UNK        -0.0865 
     18 CA        -71.7246   31.7944  -73.5379 C.3       10 UNK         0.0862 
     19 C         -70.9974   33.1622  -73.3397 C.2       10 UNK         0.5551 
     20 N         -70.1111   33.5719  -74.2393 N.am      10 UNK        -0.7319 
     21 O         -71.2616   33.8819  -72.3793 O.2       10 UNK        -0.5018 
     22 N         -71.0435   30.8577  -74.4528 N.am      10 UNK        -0.4509 
     23 C         -69.8351   30.3087  -74.2732 C.2       10 UNK         0.4899 
     24 O         -69.1242   30.5066  -73.2864 O.2       10 UNK        -0.4839 
     25 CA        -69.3541   29.3582  -75.3842 C.3       9 UNK         0.0222 
     26 CB        -67.8229   29.1913  -75.3905 C.3       9 UNK        -0.1966 
     27 N         -69.9770   28.0421  -75.2453 N.am      9 UNK        -0.4218 
     28 C         -71.2359   27.7480  -75.5922 C.2       9 UNK         0.5020 
     29 O         -72.0095   28.5578  -76.1110 O.2       9 UNK        -0.5274 
     30 CA        -71.7015   26.3177  -75.2696 C.3       8 UNK         0.0270 
     31 CB        -72.0937   26.2032  -73.7869 C.3       8 UNK        -0.1976 
     32 N         -72.8320   25.9086  -76.1076 N.am      8 UNK        -0.4313 
     33 C         -72.7252   25.5889  -77.4068 C.2       8 UNK         0.5041 
     34 O         -71.6470   25.5473  -78.0032 O.2       8 UNK        -0.5577 
     35 CA        -74.0057   25.2249  -78.1864 C.3       7 UNK         0.0284 
     36 CB        -74.0422   23.7161  -78.4831 C.3       7 UNK        -0.1958 
     37 N         -75.2493   25.5964  -77.5132 N.am      7 UNK        -0.4454 
     38 C         -75.7032   26.8449  -77.3414 C.2       7 UNK         0.5089 
     39 O         -75.1597   27.8446  -77.8101 O.2       7 UNK        -0.5125 
     40 CA        -76.9829   27.0008  -76.4969 C.3       6 UNK         0.0408 
     41 CB        -78.2035   27.0541  -77.4300 C.3       6 UNK        -0.1791 
     42 N         -77.1746   25.9341  -75.5038 N.am      6 UNK        -0.4762 
     43 C         -76.3120   25.6122  -74.5253 C.2       6 UNK         0.5007 
     44 O         -75.2462   26.1978  -74.3458 O.2       6 UNK        -0.5032 
     45 CA        -76.6428   24.3740  -73.6706 C.3       5 UNK         0.0783 
     46 C46       -77.5139   24.7091  -72.4326 C.3       11 UNK        -0.0857 
     47 S47       -76.4784   25.0913  -70.9772 S.3       11 UNK        -0.2512 
     48 C48       -77.3800   26.4574  -70.1827 C.3       11 UNK         0.0225 
     49 N         -77.2450   23.3283  -74.5007 N.am      5 UNK        -0.4615 
     50 C         -76.5445   22.3890  -75.1516 C.2       4 UNK         0.5053 
     51 O         -75.3208   22.2772  -75.0819 O.2       4 UNK        -0.5105 
     52 CA        -77.3315   21.4050  -76.0355 C.3       4 UNK         0.0263 
     53 CB        -77.7036   20.1462  -75.2357 C.3       4 UNK        -0.1981 
     54 N         -78.5439   21.9845  -76.6166 N.am      4 UNK        -0.4224 
     55 C         -78.5545   22.9612  -77.5341 C.2       3 UNK         0.4895 
     56 O         -77.5385   23.4589  -78.0191 O.2       3 UNK        -0.5091 
     57 CA        -79.9342   23.4998  -77.9523 C.3       3 UNK         0.0250 
     58 CB        -80.4945   22.6802  -79.1256 C.3       3 UNK        -0.1996 
     59 N         -80.9295   23.5519  -76.8721 N.am      3 UNK        -0.4254 
     60 C         -80.7758   24.1941  -75.7053 C.2       2 UNK         0.5004 
     61 O         -79.7231   24.7228  -75.3423 O.2       2 UNK        -0.5226 
     62 CA        -81.9828   24.2189  -74.7582 C.3       2 UNK         0.0269 
     63 CB        -81.7557   23.2603  -73.5778 C.3       2 UNK        -0.1926 
     64 N         -82.1958   25.5717  -74.2440 N.am      2 UNK        -0.4687 
     65 C         -82.6894   26.5933  -74.9602 C.2       1 UNK         0.5165 
     66 O         -83.1058   26.4706  -76.1137 O.2       1 UNK        -0.5079 
     67 H67       -82.1656   27.8303  -70.3120 H         1 UNK         0.0900 
     68 H68       -83.2886   26.4855  -70.0997 H         1 UNK         0.0900 
     69 H69       -83.8592   28.1479  -69.9328 H         1 UNK         0.0900 
     70 H70       -81.6839   28.1866  -72.4721 H         1 UNK         0.2959 
     71 H71       -83.7393   28.3723  -74.4936 H         1 UNK         0.1079 
     72 H72       -81.8671   29.0166  -76.0021 H         1 UNK         0.0837 
     73 H73       -81.9405   29.9887  -74.5686 H         1 UNK         0.0837 
     74 H74       -79.3958   30.7566  -73.7560 H         1 UNK         0.0685 
     75 H75       -80.4017   29.9070  -72.6048 H         1 UNK         0.0685 
     76 H76       -79.3064   27.5697  -71.7495 H         1 UNK         0.1434 
     77 H77       -75.2933   28.2101  -70.3851 H         1 UNK         0.1329 
     78 H78       -77.1270   31.0196  -73.0597 H         1 UNK         0.1335 
     79 H79       -75.0135   31.5484  -72.1167 H         1 UNK         0.0680 
     80 H80       -74.5987   30.7834  -70.6002 H         1 UNK         0.0680 
     81 H81       -71.2691   30.6944  -71.6936 H         1 UNK         0.1032 
     82 H82       -72.5426   31.8565  -71.4996 H         1 UNK         0.1032 
     83 H83       -72.6473   32.0686  -74.0506 H         1 UNK         0.0461 
     84 H84       -69.6527   34.4607  -74.1135 H         1 UNK         0.3453 
     85 H85       -69.8960   32.9999  -75.0399 H         1 UNK         0.3453 
     86 H86       -71.5774   30.5617  -75.2612 H         1 UNK         0.2984 
     87 H87       -69.6424   29.7887  -76.3458 H         1 UNK         0.0554 
     88 H88       -67.4945   28.5754  -76.2278 H         1 UNK         0.0847 
     89 H89       -67.4583   28.7299  -74.4718 H         1 UNK         0.0847 
     90 H90       -67.3268   30.1580  -75.4875 H         1 UNK         0.0847 
     91 H91       -69.4230   27.3307  -74.7901 H         1 UNK         0.3141 
     92 H92       -70.8733   25.6314  -75.4598 H         1 UNK         0.0743 
     93 H93       -72.8623   26.9289  -73.5179 H         1 UNK         0.0784 
     94 H94       -72.4736   25.2095  -73.5488 H         1 UNK         0.0784 
     95 H95       -71.2374   26.3878  -73.1374 H         1 UNK         0.0784 
     96 H96       -73.7528   25.9815  -75.6853 H         1 UNK         0.3213 
     97 H97       -73.9661   25.7605  -79.1372 H         1 UNK         0.0855 
     98 H98       -74.0995   23.1272  -77.5667 H         1 UNK         0.0814 
     99 H99       -73.1467   23.3995  -79.0196 H         1 UNK         0.0814 
    100 H100      -74.8995   23.4538  -79.1037 H         1 UNK         0.0814 
    101 H101      -75.8145   24.8396  -77.1500 H         1 UNK         0.3105 
    102 H102      -76.9190   27.9432  -75.9493 H         1 UNK         0.0547 
    103 H103      -78.1870   27.9614  -78.0348 H         1 UNK         0.0837 
    104 H104      -78.2162   26.2090  -78.1176 H         1 UNK         0.0837 
    105 H105      -79.1427   27.0471  -76.8788 H         1 UNK         0.0837 
    106 H106      -78.0602   25.4323  -75.5470 H         1 UNK         0.3020 
    107 H107      -75.6845   23.9923  -73.3090 H         1 UNK         0.1245 
    108 H108      -78.1261   23.8492  -72.1561 H         1 UNK         0.0781 
    109 H109      -78.2201   25.5135  -72.6432 H         1 UNK         0.0781 
    110 H110      -76.9537   26.6305  -69.1934 H         1 UNK         0.0836 
    111 H111      -78.4166   26.1594  -70.0172 H         1 UNK         0.0836 
    112 H112      -78.2396   23.4126  -74.6727 H         1 UNK         0.3022 
    113 H113      -76.6759   21.1072  -76.8569 H         1 UNK         0.0747 
    114 H114      -78.1885   19.4024  -75.8682 H         1 UNK         0.0793 
    115 H115      -76.8146   19.6774  -74.8112 H         1 UNK         0.0793 
    116 H116      -78.3768   20.3762  -74.4087 H         1 UNK         0.0793 
    117 H117      -79.4286   21.6368  -76.2767 H         1 UNK         0.3047 
    118 H118      -79.7903   24.5238  -78.2993 H         1 UNK         0.0822 
    119 H119      -81.4135   23.1191  -79.5146 H         1 UNK         0.0807 
    120 H120      -80.7094   21.6511  -78.8350 H         1 UNK         0.0807 
    121 H121      -79.7822   22.6435  -79.9514 H         1 UNK         0.0807 
    122 H122      -81.8249   23.1304  -77.0750 H         1 UNK         0.2946 
    123 H123      -82.8785   23.9065  -75.3000 H         1 UNK         0.1144 
    124 H124      -82.6107   23.2553  -72.9014 H         1 UNK         0.0793 
    125 H125      -80.8719   23.5326  -72.9988 H         1 UNK         0.0793 
    126 H126      -81.6142   22.2365  -73.9268 H         1 UNK         0.0793 
    127 H127      -81.8443   25.7695  -73.3196 H         1 UNK         0.2896 
@<TRIPOS>BOND
     1    1    2 1    
     2    1   67 1    
     3    1   68 1    
     4    1   69 1    
     5    2    3 2    
     6    2    4 am   BACKBONE|DICT|INTERRES
     7    4    5 1    
     8    4   70 1    
     9    5    6 1    
    10    5   65 1    
    11    5   71 1    
    12    6    7 1    
    13    6   72 1    
    14    6   73 1    
    15    7    8 1    
    16    8    9 1    
    17    8   74 1    
    18    8   75 1    
    19    9   10 ar   
    20    9   14 ar   
    21   10   11 ar   
    22   10   76 1    
    23   11   12 ar   
    24   11   48 1    
    25   12   13 ar   
    26   12   77 1    
    27   13   14 ar   
    28   13   15 1    
    29   14   78 1    
    30   15   16 1    
    31   15   79 1    
    32   15   80 1    
    33   16   17 1    
    34   17   18 1    
    35   17   81 1    
    36   17   82 1    
    37   18   19 1    
    38   18   22 1    
    39   18   83 1    
    40   19   20 am   BACKBONE|DICT|INTERRES
    41   19   21 2    
    42   20   84 1    
    43   20   85 1    
    44   22   23 am   BACKBONE|DICT|INTERRES
    45   22   86 1    
    46   23   24 2    
    47   23   25 1    
    48   25   26 1    
    49   25   27 1    
    50   25   87 1    
    51   26   88 1    
    52   26   89 1    
    53   26   90 1    
    54   27   28 am   BACKBONE|DICT|INTERRES
    55   27   91 1    
    56   28   29 2    
    57   28   30 1    
    58   30   31 1    
    59   30   32 1    
    60   30   92 1    
    61   31   93 1    
    62   31   94 1    
    63   31   95 1    
    64   32   33 am   BACKBONE|DICT|INTERRES
    65   32   96 1    
    66   33   34 2    
    67   33   35 1    
    68   35   36 1    
    69   35   37 1    
    70   35   97 1    
    71   36   98 1    
    72   36   99 1    
    73   36  100 1    
    74   37   38 am   BACKBONE|DICT|INTERRES
    75   37  101 1    
    76   38   39 2    
    77   38   40 1    
    78   40   41 1    
    79   40   42 1    
    80   40  102 1    
    81   41  103 1    
    82   41  104 1    
    83   41  105 1    
    84   42   43 am   BACKBONE|DICT|INTERRES
    85   42  106 1    
    86   43   44 2    
    87   43   45 1    
    88   45   46 1    
    89   45   49 1    
    90   45  107 1    
    91   46   47 1    
    92   46  108 1    
    93   46  109 1    
    94   47   48 1    
    95   48  110 1    
    96   48  111 1    
    97   49   50 am   BACKBONE|DICT|INTERRES
    98   49  112 1    
    99   50   51 2    
   100   50   52 1    
   101   52   53 1    
   102   52   54 1    
   103   52  113 1    
   104   53  114 1    
   105   53  115 1    
   106   53  116 1    
   107   54   55 am   BACKBONE|DICT|INTERRES
   108   54  117 1    
   109   55   56 2    
   110   55   57 1    
   111   57   58 1    
   112   57   59 1    
   113   57  118 1    
   114   58  119 1    
   115   58  120 1    
   116   58  121 1    
   117   59   60 am   BACKBONE|DICT|INTERRES
   118   59  122 1    
   119   60   61 2    
   120   60   62 1    
   121   62   63 1    
   122   62   64 1    
   123   62  123 1    
   124   63  124 1    
   125   63  125 1    
   126   63  126 1    
   127   64   65 am   BACKBONE|DICT|INTERRES
   128   64  127 1    
   129   65   66 2    
@<TRIPOS>SUBSTRUCTURE
     1 UNK         1 GROUP             0       ****    0 ROOT    
