@<TRIPOS>MOLECULE
3R135
127   129    1
SMALL
USER_CHARGES


@<TRIPOS>ATOM
      1 CA        -76.0950   27.5689  -72.2783 C.3       0 UNK        -0.1998 
      2 C         -77.1238   26.7773  -71.4897 C.2       0 UNK         0.4909 
      3 O         -76.7549   25.9249  -70.6804 O.2       0 UNK        -0.5240 
      4 N         -78.4128   27.0439  -71.7316 N.am      1 UNK        -0.4739 
      5 CA        -79.5382   26.2538  -71.2178 C.3       1 UNK         0.0864 
      6 C6        -80.8593   27.0658  -71.2286 C.3       11 UNK        -0.0881 
      7 S7        -80.8108   28.4219  -70.0043 S.3       11 UNK        -0.2682 
      8 C8        -81.0157   29.9133  -71.0293 C.3       11 UNK         0.0289 
      9 C9        -79.8425   30.1310  -71.9728 C.ar      11 UNK        -0.0687 
     10 C10       -79.9869   29.8721  -73.3368 C.ar      11 UNK        -0.0823 
     11 C11       -78.9121   30.0516  -74.2095 C.ar      11 UNK        -0.0830 
     12 C12       -77.6929   30.5206  -73.7118 C.ar      11 UNK        -0.1021 
     13 C13       -77.5293   30.7927  -72.3453 C.ar      11 UNK        -0.0753 
     14 C14       -78.6161   30.5950  -71.4860 C.ar      11 UNK        -0.0933 
     15 C15       -76.2132   31.3032  -71.7484 C.3       11 UNK         0.0166 
     16 S16       -74.7600   31.2051  -72.8519 S.3       11 UNK        -0.2615 
     17 C17       -73.4091   31.7416  -71.7421 C.3       11 UNK        -0.0865 
     18 CA        -72.3548   30.6340  -71.4732 C.3       10 UNK         0.0862 
     19 C         -72.8801   29.5553  -70.4778 C.2       10 UNK         0.5551 
     20 N         -73.0154   28.2919  -70.8642 N.am      10 UNK        -0.7319 
     21 O         -73.1583   29.8755  -69.3249 O.2       10 UNK        -0.5018 
     22 N         -71.8061   30.1101  -72.7325 N.am      10 UNK        -0.4509 
     23 C         -70.6876   29.3859  -72.8589 C.2       10 UNK         0.4899 
     24 O         -69.8866   29.2061  -71.9403 O.2       10 UNK        -0.4839 
     25 CA        -70.4253   28.7513  -74.2436 C.3       9 UNK         0.0222 
     26 CB        -69.6178   27.4403  -74.1400 C.3       9 UNK        -0.1966 
     27 N         -71.6360   28.5370  -75.0535 N.am      9 UNK        -0.4218 
     28 C         -72.7260   27.8266  -74.7257 C.2       9 UNK         0.5020 
     29 O         -72.8680   27.2437  -73.6505 O.2       9 UNK        -0.5274 
     30 CA        -73.8628   27.7793  -75.7613 C.3       8 UNK         0.0270 
     31 CB        -74.1994   29.1668  -76.3501 C.3       8 UNK        -0.1976 
     32 N         -73.6255   26.7877  -76.8146 N.am      8 UNK        -0.4313 
     33 C         -72.6332   26.7491  -77.7181 C.2       8 UNK         0.5041 
     34 O         -71.7606   27.6114  -77.8285 O.2       8 UNK        -0.5577 
     35 CA        -72.6277   25.5487  -78.6763 C.3       7 UNK         0.0284 
     36 CB        -72.1510   24.2784  -77.9518 C.3       7 UNK        -0.1958 
     37 N         -73.9670   25.3277  -79.2224 N.am      7 UNK        -0.4454 
     38 C         -74.3597   25.6620  -80.4596 C.2       7 UNK         0.5089 
     39 O         -73.6010   26.0789  -81.3355 O.2       7 UNK        -0.5125 
     40 CA        -75.8651   25.5294  -80.7709 C.3       6 UNK         0.0408 
     41 CB        -76.1732   24.1424  -81.3562 C.3       6 UNK        -0.1791 
     42 N         -76.7130   25.7609  -79.5971 N.am      6 UNK        -0.4762 
     43 C         -76.7958   26.9247  -78.9347 C.2       6 UNK         0.5007 
     44 O         -76.2948   27.9720  -79.3442 O.2       6 UNK        -0.5032 
     45 CA        -77.5152   26.9288  -77.5689 C.3       5 UNK         0.0783 
     46 C46       -78.8352   27.7319  -77.6386 C.3       11 UNK        -0.0857 
     47 S47       -79.5162   28.0015  -75.9689 S.3       11 UNK        -0.2512 
     48 C48       -79.0673   29.7450  -75.6913 C.3       11 UNK         0.0225 
     49 N         -77.7380   25.6015  -76.9801 N.am      5 UNK        -0.4615 
     50 C         -76.8163   24.6934  -76.6370 C.2       4 UNK         0.5053 
     51 O         -75.6149   24.8283  -76.8750 O.2       4 UNK        -0.5105 
     52 CA        -77.3074   23.4288  -75.9080 C.3       4 UNK         0.0263 
     53 CB        -76.4620   23.1637  -74.6500 C.3       4 UNK        -0.1981 
     54 N         -78.7210   23.5053  -75.5203 N.am      4 UNK        -0.4224 
     55 C         -79.7638   23.1554  -76.2894 C.2       3 UNK         0.4895 
     56 O         -79.6374   22.7355  -77.4405 O.2       3 UNK        -0.5091 
     57 CA        -81.1811   23.3398  -75.6951 C.3       3 UNK         0.0250 
     58 CB        -82.2098   22.3545  -76.2905 C.3       3 UNK        -0.1996 
     59 N         -81.2159   23.3189  -74.2251 N.am      3 UNK        -0.4254 
     60 C         -80.8407   22.3130  -73.4194 C.2       2 UNK         0.5004 
     61 O         -80.5592   21.1849  -73.8275 O.2       2 UNK        -0.5226 
     62 CA        -80.7269   22.6184  -71.9064 C.3       2 UNK         0.0269 
     63 CB        -79.5995   21.7922  -71.2505 C.3       2 UNK        -0.1926 
     64 N         -80.5649   24.0358  -71.5247 N.am      2 UNK        -0.4687 
     65 C         -79.6578   24.9147  -71.9837 C.2       1 UNK         0.5165 
     66 O         -78.9427   24.6961  -72.9646 O.2       1 UNK        -0.5079 
     67 H67       -76.5189   27.9848  -73.1914 H         1 UNK         0.0900 
     68 H68       -75.2646   26.9232  -72.5604 H         1 UNK         0.0900 
     69 H69       -75.7043   28.3850  -71.6736 H         1 UNK         0.0900 
     70 H70       -78.6539   27.7701  -72.3917 H         1 UNK         0.2959 
     71 H71       -79.3153   25.9866  -70.1821 H         1 UNK         0.1079 
     72 H72       -81.7126   26.4396  -70.9639 H         1 UNK         0.0837 
     73 H73       -81.0715   27.4521  -72.2265 H         1 UNK         0.0837 
     74 H74       -81.9541   29.8433  -71.5819 H         1 UNK         0.0685 
     75 H75       -81.1135   30.7794  -70.3732 H         1 UNK         0.0685 
     76 H76       -80.9329   29.5165  -73.7226 H         1 UNK         0.1434 
     77 H77       -76.8745   30.6679  -74.4010 H         1 UNK         0.1329 
     78 H78       -78.5079   30.7962  -70.4287 H         1 UNK         0.1335 
     79 H79       -75.9927   30.7377  -70.8415 H         1 UNK         0.0680 
     80 H80       -76.3497   32.3420  -71.4447 H         1 UNK         0.0680 
     81 H81       -73.8174   32.1267  -70.8056 H         1 UNK         0.1032 
     82 H82       -72.9190   32.5958  -72.2116 H         1 UNK         0.1032 
     83 H83       -71.5237   31.1152  -70.9541 H         1 UNK         0.0461 
     84 H84       -73.3448   27.6087  -70.2023 H         1 UNK         0.3453 
     85 H85       -72.8222   28.0147  -71.8212 H         1 UNK         0.3453 
     86 H86       -72.4130   30.1970  -73.5340 H         1 UNK         0.2984 
     87 H87       -69.8181   29.4712  -74.7938 H         1 UNK         0.0554 
     88 H88       -68.6495   27.6093  -73.6675 H         1 UNK         0.0847 
     89 H89       -69.4251   27.0146  -75.1249 H         1 UNK         0.0847 
     90 H90       -70.1427   26.6900  -73.5476 H         1 UNK         0.0847 
     91 H91       -71.6027   28.8953  -76.0011 H         1 UNK         0.3141 
     92 H92       -74.7499   27.4356  -75.2266 H         1 UNK         0.0743 
     93 H93       -73.3893   29.5742  -76.9548 H         1 UNK         0.0784 
     94 H94       -75.0843   29.1229  -76.9838 H         1 UNK         0.0784 
     95 H95       -74.4087   29.8862  -75.5582 H         1 UNK         0.0784 
     96 H96       -74.2729   26.0004  -76.8000 H         1 UNK         0.3213 
     97 H97       -71.9198   25.7655  -79.4794 H         1 UNK         0.0855 
     98 H98       -71.1603   24.4251  -77.5193 H         1 UNK         0.0814 
     99 H99       -72.0823   23.4358  -78.6398 H         1 UNK         0.0814 
    100 H100      -72.8229   23.9925  -77.1413 H         1 UNK         0.0814 
    101 H101      -74.6746   25.0185  -78.5629 H         1 UNK         0.3105 
    102 H102      -76.1168   26.2816  -81.5216 H         1 UNK         0.0547 
    103 H103      -75.5724   23.9538  -82.2470 H         1 UNK         0.0837 
    104 H104      -75.9579   23.3448  -80.6440 H         1 UNK         0.0837 
    105 H105      -77.2195   24.0582  -81.6502 H         1 UNK         0.0837 
    106 H106      -77.1708   24.9547  -79.1961 H         1 UNK         0.3020 
    107 H107      -76.8404   27.4543  -76.8907 H         1 UNK         0.1245 
    108 H108      -79.5778   27.1992  -78.2357 H         1 UNK         0.0781 
    109 H109      -78.6906   28.6963  -78.1302 H         1 UNK         0.0781 
    110 H110      -79.8351   30.3898  -76.1211 H         1 UNK         0.0836 
    111 H111      -78.1397   29.9717  -76.2194 H         1 UNK         0.0836 
    112 H112      -78.6939   25.4006  -76.7282 H         1 UNK         0.3022 
    113 H113      -77.1692   22.5887  -76.5915 H         1 UNK         0.0747 
    114 H114      -75.4140   23.0029  -74.9063 H         1 UNK         0.0793 
    115 H115      -76.5018   24.0024  -73.9534 H         1 UNK         0.0793 
    116 H116      -76.8056   22.2741  -74.1215 H         1 UNK         0.0793 
    117 H117      -78.9005   23.8804  -74.5888 H         1 UNK         0.3047 
    118 H118      -81.4901   24.3454  -75.9845 H         1 UNK         0.0822 
    119 H119      -81.9274   21.3163  -76.1139 H         1 UNK         0.0807 
    120 H120      -82.2989   22.4856  -77.3696 H         1 UNK         0.0807 
    121 H121      -83.2011   22.5100  -75.8650 H         1 UNK         0.0807 
    122 H122      -81.4167   24.2048  -73.7828 H         1 UNK         0.2946 
    123 H123      -81.6729   22.2896  -71.4725 H         1 UNK         0.1144 
    124 H124      -79.5477   21.9715  -70.1766 H         1 UNK         0.0793 
    125 H125      -78.6256   22.0349  -71.6780 H         1 UNK         0.0793 
    126 H126      -79.7585   20.7216  -71.3867 H         1 UNK         0.0793 
    127 H127      -81.1398   24.3259  -70.7451 H         1 UNK         0.2896 
@<TRIPOS>BOND
     1    1    2 1    
     2    1   67 1    
     3    1   68 1    
     4    1   69 1    
     5    2    3 2    
     6    2    4 am   BACKBONE|DICT|INTERRES
     7    4    5 1    
     8    4   70 1    
     9    5    6 1    
    10    5   65 1    
    11    5   71 1    
    12    6    7 1    
    13    6   72 1    
    14    6   73 1    
    15    7    8 1    
    16    8    9 1    
    17    8   74 1    
    18    8   75 1    
    19    9   10 ar   
    20    9   14 ar   
    21   10   11 ar   
    22   10   76 1    
    23   11   12 ar   
    24   11   48 1    
    25   12   13 ar   
    26   12   77 1    
    27   13   14 ar   
    28   13   15 1    
    29   14   78 1    
    30   15   16 1    
    31   15   79 1    
    32   15   80 1    
    33   16   17 1    
    34   17   18 1    
    35   17   81 1    
    36   17   82 1    
    37   18   19 1    
    38   18   22 1    
    39   18   83 1    
    40   19   20 am   BACKBONE|DICT|INTERRES
    41   19   21 2    
    42   20   84 1    
    43   20   85 1    
    44   22   23 am   BACKBONE|DICT|INTERRES
    45   22   86 1    
    46   23   24 2    
    47   23   25 1    
    48   25   26 1    
    49   25   27 1    
    50   25   87 1    
    51   26   88 1    
    52   26   89 1    
    53   26   90 1    
    54   27   28 am   BACKBONE|DICT|INTERRES
    55   27   91 1    
    56   28   29 2    
    57   28   30 1    
    58   30   31 1    
    59   30   32 1    
    60   30   92 1    
    61   31   93 1    
    62   31   94 1    
    63   31   95 1    
    64   32   33 am   BACKBONE|DICT|INTERRES
    65   32   96 1    
    66   33   34 2    
    67   33   35 1    
    68   35   36 1    
    69   35   37 1    
    70   35   97 1    
    71   36   98 1    
    72   36   99 1    
    73   36  100 1    
    74   37   38 am   BACKBONE|DICT|INTERRES
    75   37  101 1    
    76   38   39 2    
    77   38   40 1    
    78   40   41 1    
    79   40   42 1    
    80   40  102 1    
    81   41  103 1    
    82   41  104 1    
    83   41  105 1    
    84   42   43 am   BACKBONE|DICT|INTERRES
    85   42  106 1    
    86   43   44 2    
    87   43   45 1    
    88   45   46 1    
    89   45   49 1    
    90   45  107 1    
    91   46   47 1    
    92   46  108 1    
    93   46  109 1    
    94   47   48 1    
    95   48  110 1    
    96   48  111 1    
    97   49   50 am   BACKBONE|DICT|INTERRES
    98   49  112 1    
    99   50   51 2    
   100   50   52 1    
   101   52   53 1    
   102   52   54 1    
   103   52  113 1    
   104   53  114 1    
   105   53  115 1    
   106   53  116 1    
   107   54   55 am   BACKBONE|DICT|INTERRES
   108   54  117 1    
   109   55   56 2    
   110   55   57 1    
   111   57   58 1    
   112   57   59 1    
   113   57  118 1    
   114   58  119 1    
   115   58  120 1    
   116   58  121 1    
   117   59   60 am   BACKBONE|DICT|INTERRES
   118   59  122 1    
   119   60   61 2    
   120   60   62 1    
   121   62   63 1    
   122   62   64 1    
   123   62  123 1    
   124   63  124 1    
   125   63  125 1    
   126   63  126 1    
   127   64   65 am   BACKBONE|DICT|INTERRES
   128   64  127 1    
   129   65   66 2    
@<TRIPOS>SUBSTRUCTURE
     1 UNK         1 GROUP             0       ****    0 ROOT    
