@<TRIPOS>MOLECULE
3R135
127   129    1
SMALL
USER_CHARGES


@<TRIPOS>ATOM
      1 CA        -78.5784   22.6674  -68.8953 C.3       0 UNK        -0.1998 
      2 C         -79.5358   23.4906  -69.7441 C.2       0 UNK         0.4909 
      3 O         -80.7254   23.1764  -69.8050 O.2       0 UNK        -0.5240 
      4 N         -79.0277   24.5474  -70.3897 N.am      1 UNK        -0.4739 
      5 CA        -79.7837   25.4195  -71.2960 C.3       1 UNK         0.0864 
      6 C6        -79.0232   26.7363  -71.5926 C.3       11 UNK        -0.0881 
      7 S7        -78.7290   27.7119  -70.0794 S.3       11 UNK        -0.2682 
      8 C8        -79.8030   29.1571  -70.3543 C.3       11 UNK         0.0289 
      9 C9        -79.2424   30.0663  -71.4376 C.ar      11 UNK        -0.0687 
     10 C10       -79.8631   30.1569  -72.6877 C.ar      11 UNK        -0.0823 
     11 C11       -79.3262   30.9753  -73.6869 C.ar      11 UNK        -0.0830 
     12 C12       -78.1658   31.7096  -73.4258 C.ar      11 UNK        -0.1021 
     13 C13       -77.5299   31.6125  -72.1865 C.ar      11 UNK        -0.0753 
     14 C14       -78.0834   30.8056  -71.1895 C.ar      11 UNK        -0.0933 
     15 C15       -76.2132   32.3323  -71.9443 C.3       11 UNK         0.0166 
     16 S16       -74.8370   31.4887  -72.7896 S.3       11 UNK        -0.2615 
     17 C17       -74.9938   29.7917  -72.1301 C.3       11 UNK        -0.0865 
     18 CA        -73.7175   28.9248  -72.3160 C.3       10 UNK         0.0862 
     19 C         -73.7802   27.5259  -71.6390 C.2       10 UNK         0.5551 
     20 N         -74.8440   27.1803  -70.9232 N.am      10 UNK        -0.7319 
     21 O         -72.8286   26.7531  -71.7186 O.2       10 UNK        -0.5018 
     22 N         -73.3660   28.7521  -73.7294 N.am      10 UNK        -0.4509 
     23 C         -72.3765   29.3760  -74.3788 C.2       10 UNK         0.4899 
     24 O         -71.6471   30.2321  -73.8743 O.2       10 UNK        -0.4839 
     25 CA        -72.1660   28.9470  -75.8448 C.3       9 UNK         0.0222 
     26 CB        -70.9018   29.5557  -76.4885 C.3       9 UNK        -0.1966 
     27 N         -72.1898   27.4879  -75.9956 N.am      9 UNK        -0.4218 
     28 C         -71.3625   26.5953  -75.4272 C.2       9 UNK         0.5020 
     29 O         -70.3627   26.8966  -74.7739 O.2       9 UNK        -0.5274 
     30 CA        -71.7086   25.1070  -75.6013 C.3       8 UNK         0.0270 
     31 CB        -72.2260   24.5172  -74.2791 C.3       8 UNK        -0.1976 
     32 N         -72.7130   24.8826  -76.6447 N.am      8 UNK        -0.4313 
     33 C         -72.4276   24.5056  -77.8966 C.2       8 UNK         0.5041 
     34 O         -71.2868   24.3053  -78.3156 O.2       8 UNK        -0.5577 
     35 CA        -73.6219   24.3125  -78.8409 C.3       7 UNK         0.0284 
     36 CB        -74.3038   22.9582  -78.5822 C.3       7 UNK        -0.1958 
     37 N         -74.6143   25.3869  -78.7510 N.am      7 UNK        -0.4454 
     38 C         -74.4278   26.6286  -79.2212 C.2       7 UNK         0.5089 
     39 O         -73.3556   27.0382  -79.6653 O.2       7 UNK        -0.5125 
     40 CA        -75.6434   27.5657  -79.2259 C.3       6 UNK         0.0408 
     41 CB        -76.6011   27.1896  -80.3687 C.3       6 UNK        -0.1791 
     42 N         -76.3731   27.5263  -77.9594 N.am      6 UNK        -0.4762 
     43 C         -76.3455   28.4957  -77.0321 C.2       6 UNK         0.5007 
     44 O         -75.6500   29.5079  -77.1207 O.2       6 UNK        -0.5032 
     45 CA        -77.2315   28.2863  -75.7800 C.3       5 UNK         0.0783 
     46 C46       -78.6949   28.7333  -76.0414 C.3       11 UNK        -0.0857 
     47 S47       -78.8933   30.5145  -76.3958 S.3       11 UNK        -0.2512 
     48 C48       -79.9937   31.0650  -75.0515 C.3       11 UNK         0.0225 
     49 N         -77.2029   26.8925  -75.3201 N.am      5 UNK        -0.4615 
     50 C         -76.1007   26.1985  -74.9972 C.2       4 UNK         0.5053 
     51 O         -74.9798   26.6993  -74.9115 O.2       4 UNK        -0.5105 
     52 CA        -76.2441   24.6759  -74.8116 C.3       4 UNK         0.0263 
     53 CB        -76.1333   24.2861  -73.3297 C.3       4 UNK        -0.1981 
     54 N         -77.4675   24.1111  -75.3970 N.am      4 UNK        -0.4224 
     55 C         -77.7459   24.1081  -76.7123 C.2       3 UNK         0.4895 
     56 O         -76.9977   24.5910  -77.5631 O.2       3 UNK        -0.5091 
     57 CA        -79.0926   23.5212  -77.1691 C.3       3 UNK         0.0250 
     58 CB        -78.9155   22.0547  -77.5919 C.3       3 UNK        -0.1996 
     59 N         -80.1644   23.6163  -76.1748 N.am      3 UNK        -0.4254 
     60 C         -80.6273   24.7550  -75.6398 C.2       2 UNK         0.5004 
     61 O         -80.1928   25.8711  -75.9278 O.2       2 UNK        -0.5226 
     62 CA        -81.7157   24.6389  -74.5549 C.3       2 UNK         0.0269 
     63 CB        -82.3223   23.2238  -74.4080 C.3       2 UNK        -0.1926 
     64 N         -81.2223   25.1208  -73.2581 N.am      2 UNK        -0.4687 
     65 C         -80.1283   24.6898  -72.6106 C.2       1 UNK         0.5165 
     66 O         -79.3892   23.7943  -73.0320 O.2       1 UNK        -0.5079 
     67 H67       -77.5640   23.0651  -68.9231 H         1 UNK         0.0900 
     68 H68       -78.5490   21.6391  -69.2545 H         1 UNK         0.0900 
     69 H69       -78.9103   22.6574  -67.8575 H         1 UNK         0.0900 
     70 H70       -78.0451   24.7596  -70.3009 H         1 UNK         0.2959 
     71 H71       -80.7255   25.6699  -70.8019 H         1 UNK         0.1079 
     72 H72       -78.0569   26.5390  -72.0573 H         1 UNK         0.0837 
     73 H73       -79.5746   27.3432  -72.3120 H         1 UNK         0.0837 
     74 H74       -80.8119   28.8226  -70.6010 H         1 UNK         0.0685 
     75 H75       -79.8848   29.7185  -69.4225 H         1 UNK         0.0685 
     76 H76       -80.7589   29.5841  -72.8849 H         1 UNK         0.1434 
     77 H77       -77.7354   32.3287  -74.2015 H         1 UNK         0.1329 
     78 H78       -77.5937   30.7216  -70.2289 H         1 UNK         0.1335 
     79 H79       -76.2820   33.3585  -72.3082 H         1 UNK         0.0680 
     80 H80       -75.9958   32.3968  -70.8770 H         1 UNK         0.0680 
     81 H81       -75.8499   29.3124  -72.6087 H         1 UNK         0.1032 
     82 H82       -75.2332   29.8753  -71.0687 H         1 UNK         0.1032 
     83 H83       -72.9020   29.4387  -71.8043 H         1 UNK         0.0461 
     84 H84       -74.8438   26.2816  -70.4684 H         1 UNK         0.3453 
     85 H85       -75.6342   27.7944  -70.8141 H         1 UNK         0.3453 
     86 H86       -73.8801   28.0167  -74.2104 H         1 UNK         0.2984 
     87 H87       -73.0266   29.3238  -76.3985 H         1 UNK         0.0554 
     88 H88       -70.7961   29.2423  -77.5271 H         1 UNK         0.0847 
     89 H89       -69.9944   29.2684  -75.9566 H         1 UNK         0.0847 
     90 H90       -70.9490   30.6452  -76.4822 H         1 UNK         0.0847 
     91 H91       -72.9885   27.1216  -76.4919 H         1 UNK         0.3141 
     92 H92       -70.7825   24.5873  -75.8564 H         1 UNK         0.0743 
     93 H93       -73.1179   25.0354  -73.9294 H         1 UNK         0.0784 
     94 H94       -72.4658   23.4586  -74.3788 H         1 UNK         0.0784 
     95 H95       -71.4756   24.6080  -73.4925 H         1 UNK         0.0784 
     96 H96       -73.6782   25.0354  -76.3922 H         1 UNK         0.3213 
     97 H97       -73.2341   24.3015  -79.8622 H         1 UNK         0.0855 
     98 H98       -74.7275   22.8996  -77.5790 H         1 UNK         0.0814 
     99 H99       -73.5923   22.1376  -78.6839 H         1 UNK         0.0814 
    100 H100      -75.1094   22.7780  -79.2943 H         1 UNK         0.0814 
    101 H101      -75.5321   25.1253  -78.3918 H         1 UNK         0.3105 
    102 H102      -75.2797   28.5766  -79.4224 H         1 UNK         0.0547 
    103 H103      -76.0864   27.2030  -81.3305 H         1 UNK         0.0837 
    104 H104      -77.0218   26.1917  -80.2369 H         1 UNK         0.0837 
    105 H105      -77.4297   27.8945  -80.4365 H         1 UNK         0.0837 
    106 H106      -76.9166   26.6909  -77.7747 H         1 UNK         0.3020 
    107 H107      -76.8169   28.9033  -74.9794 H         1 UNK         0.1245 
    108 H108      -79.3131   28.4775  -75.1795 H         1 UNK         0.0781 
    109 H109      -79.1197   28.1769  -76.8791 H         1 UNK         0.0781 
    110 H110      -80.9147   30.4806  -75.0808 H         1 UNK         0.0836 
    111 H111      -80.2826   32.1007  -75.2352 H         1 UNK         0.0836 
    112 H112      -78.0817   26.3929  -75.3867 H         1 UNK         0.3022 
    113 H113      -75.4019   24.2167  -75.3317 H         1 UNK         0.0747 
    114 H114      -76.1240   23.2033  -73.2048 H         1 UNK         0.0793 
    115 H115      -75.2139   24.6708  -72.8871 H         1 UNK         0.0793 
    116 H116      -76.9583   24.6806  -72.7421 H         1 UNK         0.0793 
    117 H117      -78.1558   23.7450  -74.7465 H         1 UNK         0.3047 
    118 H118      -79.4094   24.0933  -78.0437 H         1 UNK         0.0822 
    119 H119      -79.8329   21.6505  -78.0203 H         1 UNK         0.0807 
    120 H120      -78.6295   21.4230  -76.7499 H         1 UNK         0.0807 
    121 H121      -78.1369   21.9585  -78.3505 H         1 UNK         0.0807 
    122 H122      -80.5572   22.7455  -75.8476 H         1 UNK         0.2946 
    123 H123      -82.5169   25.3134  -74.8622 H         1 UNK         0.1144 
    124 H124      -83.1389   23.2261  -73.6859 H         1 UNK         0.0793 
    125 H125      -81.5910   22.4897  -74.0674 H         1 UNK         0.0793 
    126 H126      -82.7380   22.8707  -75.3528 H         1 UNK         0.0793 
    127 H127      -81.7481   25.8845  -72.8560 H         1 UNK         0.2896 
@<TRIPOS>BOND
     1    1    2 1    
     2    1   67 1    
     3    1   68 1    
     4    1   69 1    
     5    2    3 2    
     6    2    4 am   BACKBONE|DICT|INTERRES
     7    4    5 1    
     8    4   70 1    
     9    5    6 1    
    10    5   65 1    
    11    5   71 1    
    12    6    7 1    
    13    6   72 1    
    14    6   73 1    
    15    7    8 1    
    16    8    9 1    
    17    8   74 1    
    18    8   75 1    
    19    9   10 ar   
    20    9   14 ar   
    21   10   11 ar   
    22   10   76 1    
    23   11   12 ar   
    24   11   48 1    
    25   12   13 ar   
    26   12   77 1    
    27   13   14 ar   
    28   13   15 1    
    29   14   78 1    
    30   15   16 1    
    31   15   79 1    
    32   15   80 1    
    33   16   17 1    
    34   17   18 1    
    35   17   81 1    
    36   17   82 1    
    37   18   19 1    
    38   18   22 1    
    39   18   83 1    
    40   19   20 am   BACKBONE|DICT|INTERRES
    41   19   21 2    
    42   20   84 1    
    43   20   85 1    
    44   22   23 am   BACKBONE|DICT|INTERRES
    45   22   86 1    
    46   23   24 2    
    47   23   25 1    
    48   25   26 1    
    49   25   27 1    
    50   25   87 1    
    51   26   88 1    
    52   26   89 1    
    53   26   90 1    
    54   27   28 am   BACKBONE|DICT|INTERRES
    55   27   91 1    
    56   28   29 2    
    57   28   30 1    
    58   30   31 1    
    59   30   32 1    
    60   30   92 1    
    61   31   93 1    
    62   31   94 1    
    63   31   95 1    
    64   32   33 am   BACKBONE|DICT|INTERRES
    65   32   96 1    
    66   33   34 2    
    67   33   35 1    
    68   35   36 1    
    69   35   37 1    
    70   35   97 1    
    71   36   98 1    
    72   36   99 1    
    73   36  100 1    
    74   37   38 am   BACKBONE|DICT|INTERRES
    75   37  101 1    
    76   38   39 2    
    77   38   40 1    
    78   40   41 1    
    79   40   42 1    
    80   40  102 1    
    81   41  103 1    
    82   41  104 1    
    83   41  105 1    
    84   42   43 am   BACKBONE|DICT|INTERRES
    85   42  106 1    
    86   43   44 2    
    87   43   45 1    
    88   45   46 1    
    89   45   49 1    
    90   45  107 1    
    91   46   47 1    
    92   46  108 1    
    93   46  109 1    
    94   47   48 1    
    95   48  110 1    
    96   48  111 1    
    97   49   50 am   BACKBONE|DICT|INTERRES
    98   49  112 1    
    99   50   51 2    
   100   50   52 1    
   101   52   53 1    
   102   52   54 1    
   103   52  113 1    
   104   53  114 1    
   105   53  115 1    
   106   53  116 1    
   107   54   55 am   BACKBONE|DICT|INTERRES
   108   54  117 1    
   109   55   56 2    
   110   55   57 1    
   111   57   58 1    
   112   57   59 1    
   113   57  118 1    
   114   58  119 1    
   115   58  120 1    
   116   58  121 1    
   117   59   60 am   BACKBONE|DICT|INTERRES
   118   59  122 1    
   119   60   61 2    
   120   60   62 1    
   121   62   63 1    
   122   62   64 1    
   123   62  123 1    
   124   63  124 1    
   125   63  125 1    
   126   63  126 1    
   127   64   65 am   BACKBONE|DICT|INTERRES
   128   64  127 1    
   129   65   66 2    
@<TRIPOS>SUBSTRUCTURE
     1 UNK         1 GROUP             0       ****    0 ROOT    
