@<TRIPOS>MOLECULE
3R135
127   129    1
SMALL
USER_CHARGES


@<TRIPOS>ATOM
      1 CA        -83.2529   28.2334  -74.8498 C.3       0 UNK        -0.1998 
      2 C         -81.8497   27.7590  -74.5082 C.2       0 UNK         0.4909 
      3 O         -81.4694   26.6533  -74.8956 O.2       0 UNK        -0.5240 
      4 N         -81.0679   28.5925  -73.8056 N.am      1 UNK        -0.4739 
      5 CA        -79.7034   28.3071  -73.3293 C.3       1 UNK         0.0864 
      6 C6        -79.6661   27.2220  -72.2234 C.3       11 UNK        -0.0881 
      7 S7        -80.7039   27.5819  -70.7571 S.3       11 UNK        -0.2682 
      8 C8        -79.6248   28.5336  -69.6232 C.3       11 UNK         0.0289 
      9 C9        -78.1630   28.1068  -69.6546 C.ar      11 UNK        -0.0687 
     10 C10       -77.8042   26.7712  -69.4439 C.ar      11 UNK        -0.0823 
     11 C11       -76.4834   26.3564  -69.6355 C.ar      11 UNK        -0.0830 
     12 C12       -75.5018   27.3011  -69.9439 C.ar      11 UNK        -0.1021 
     13 C13       -75.8438   28.6444  -70.1225 C.ar      11 UNK        -0.0753 
     14 C14       -77.1753   29.0412  -69.9769 C.ar      11 UNK        -0.0933 
     15 C15       -74.7897   29.6580  -70.5429 C.3       11 UNK         0.0166 
     16 S16       -73.9928   29.2044  -72.1169 S.3       11 UNK        -0.2615 
     17 C17       -75.4169   29.0683  -73.2617 C.3       11 UNK        -0.0865 
     18 CA        -75.4672   30.1949  -74.3230 C.3       10 UNK         0.0862 
     19 C         -75.9493   31.5495  -73.7324 C.2       10 UNK         0.5551 
     20 N         -75.1903   32.6319  -73.8468 N.am      10 UNK        -0.7319 
     21 O         -77.0407   31.6175  -73.1729 O.2       10 UNK        -0.5018 
     22 N         -74.2111   30.2367  -75.0795 N.am      10 UNK        -0.4509 
     23 C         -74.0583   30.6509  -76.3412 C.2       10 UNK         0.4899 
     24 O         -74.9585   31.1467  -77.0179 O.2       10 UNK        -0.4839 
     25 CA        -72.6587   30.4596  -76.9610 C.3       9 UNK         0.0222 
     26 CB        -71.8669   31.7764  -76.9105 C.3       9 UNK        -0.1966 
     27 N         -71.8676   29.3916  -76.3296 N.am      9 UNK        -0.4218 
     28 C         -72.1977   28.0913  -76.3345 C.2       9 UNK         0.5020 
     29 O         -73.1889   27.6445  -76.9167 O.2       9 UNK        -0.5274 
     30 CA        -71.2789   27.1498  -75.5376 C.3       8 UNK         0.0270 
     31 CB        -71.3733   27.4287  -74.0278 C.3       8 UNK        -0.1976 
     32 N         -71.6922   25.7690  -75.7676 N.am      8 UNK        -0.4313 
     33 C         -70.9514   24.8049  -76.3271 C.2       8 UNK         0.5041 
     34 O         -69.7600   24.9332  -76.6140 O.2       8 UNK        -0.5577 
     35 CA        -71.6551   23.4648  -76.6282 C.3       7 UNK         0.0284 
     36 CB        -71.3091   22.4214  -75.5533 C.3       7 UNK        -0.1958 
     37 N         -73.1127   23.5910  -76.7211 N.am      7 UNK        -0.4454 
     38 C         -73.7621   24.2638  -77.6808 C.2       7 UNK         0.5089 
     39 O         -73.2096   24.6885  -78.6965 O.2       7 UNK        -0.5125 
     40 CA        -75.2702   24.5222  -77.4829 C.3       6 UNK         0.0408 
     41 CB        -76.0757   23.8336  -78.5975 C.3       6 UNK        -0.1791 
     42 N         -75.8315   24.1316  -76.1800 N.am      6 UNK        -0.4762 
     43 C         -75.5008   24.6204  -74.9722 C.2       6 UNK         0.5007 
     44 O         -74.5929   25.4339  -74.7944 O.2       6 UNK        -0.5032 
     45 CA        -76.3103   24.0718  -73.7785 C.3       5 UNK         0.0783 
     46 C46       -76.0388   24.8186  -72.4437 C.3       11 UNK        -0.0857 
     47 S47       -76.8377   23.9881  -71.0231 S.3       11 UNK        -0.2512 
     48 C48       -76.1334   24.8777  -69.5934 C.3       11 UNK         0.0225 
     49 N         -77.7321   24.0698  -74.1425 N.am      5 UNK        -0.4615 
     50 C         -78.5053   22.9785  -74.2119 C.2       4 UNK         0.5053 
     51 O         -78.1060   21.8424  -73.9555 O.2       4 UNK        -0.5105 
     52 CA        -79.9620   23.1622  -74.6707 C.3       4 UNK         0.0263 
     53 CB        -80.9004   23.3598  -73.4705 C.3       4 UNK        -0.1981 
     54 N         -80.1365   24.2519  -75.6371 N.am      4 UNK        -0.4224 
     55 C         -79.8026   24.1449  -76.9323 C.2       3 UNK         0.4895 
     56 O         -79.2730   23.1448  -77.4169 O.2       3 UNK        -0.5091 
     57 CA        -80.1128   25.3387  -77.8456 C.3       3 UNK         0.0250 
     58 CB        -81.6219   25.4395  -78.1270 C.3       3 UNK        -0.1996 
     59 N         -79.6327   26.5879  -77.2564 N.am      3 UNK        -0.4254 
     60 C         -78.4943   27.2043  -77.6067 C.2       2 UNK         0.5004 
     61 O         -77.7673   26.8200  -78.5224 O.2       2 UNK        -0.5226 
     62 CA        -78.0868   28.4732  -76.8311 C.3       2 UNK         0.0269 
     63 CB        -78.1980   29.7191  -77.7248 C.3       2 UNK        -0.1926 
     64 N         -78.8511   28.7054  -75.6010 N.am      2 UNK        -0.4687 
     65 C         -78.7438   27.9604  -74.4932 C.2       1 UNK         0.5165 
     66 O         -77.9717   27.0050  -74.4040 O.2       1 UNK        -0.5079 
     67 H67       -83.3873   28.2561  -75.9308 H         1 UNK         0.0900 
     68 H68       -83.9895   27.5498  -74.4289 H         1 UNK         0.0900 
     69 H69       -83.4530   29.2312  -74.4598 H         1 UNK         0.0900 
     70 H70       -81.4403   29.4891  -73.5243 H         1 UNK         0.2959 
     71 H71       -79.3191   29.2320  -72.8955 H         1 UNK         0.1079 
     72 H72       -80.0214   26.2807  -72.6348 H         1 UNK         0.0837 
     73 H73       -78.6397   27.0173  -71.9258 H         1 UNK         0.0837 
     74 H74       -79.7194   29.5904  -69.8776 H         1 UNK         0.0685 
     75 H75       -80.0041   28.4302  -68.6059 H         1 UNK         0.0685 
     76 H76       -78.5696   26.0389  -69.2251 H         1 UNK         0.1434 
     77 H77       -74.4789   26.9867  -70.1007 H         1 UNK         0.1329 
     78 H78       -77.4479   30.0729  -70.1542 H         1 UNK         0.1335 
     79 H79       -74.0278   29.7251  -69.7652 H         1 UNK         0.0680 
     80 H80       -75.2211   30.6554  -70.6424 H         1 UNK         0.0680 
     81 H81       -75.3353   28.1042  -73.7679 H         1 UNK         0.1032 
     82 H82       -76.3572   29.0151  -72.7133 H         1 UNK         0.1032 
     83 H83       -76.2476   29.9178  -75.0312 H         1 UNK         0.0461 
     84 H84       -75.5143   33.5067  -73.4664 H         1 UNK         0.3453 
     85 H85       -74.2987   32.5794  -74.3113 H         1 UNK         0.3453 
     86 H86       -73.4083   29.8673  -74.5927 H         1 UNK         0.2984 
     87 H87       -72.8034   30.1887  -78.0089 H         1 UNK         0.0554 
     88 H88       -72.4202   32.5831  -77.3939 H         1 UNK         0.0847 
     89 H89       -70.9125   31.6871  -77.4297 H         1 UNK         0.0847 
     90 H90       -71.6649   32.0896  -75.8854 H         1 UNK         0.0847 
     91 H91       -71.0314   29.6773  -75.8399 H         1 UNK         0.3141 
     92 H92       -70.2529   27.3117  -75.8741 H         1 UNK         0.0743 
     93 H93       -71.1004   28.4564  -73.7860 H         1 UNK         0.0784 
     94 H94       -72.3844   27.2581  -73.6559 H         1 UNK         0.0784 
     95 H95       -70.7024   26.7783  -73.4664 H         1 UNK         0.0784 
     96 H96       -72.6840   25.5991  -75.6235 H         1 UNK         0.3213 
     97 H97       -71.2825   23.1072  -77.5906 H         1 UNK         0.0855 
     98 H98       -71.6655   22.7230  -74.5675 H         1 UNK         0.0814 
     99 H99       -70.2295   22.2819  -75.4800 H         1 UNK         0.0814 
    100 H100      -71.7439   21.4495  -75.7872 H         1 UNK         0.0814 
    101 H101      -73.6510   23.2685  -75.9311 H         1 UNK         0.3105 
    102 H102      -75.4101   25.6007  -77.5799 H         1 UNK         0.0547 
    103 H103      -77.1194   24.1425  -78.5786 H         1 UNK         0.0837 
    104 H104      -75.6913   24.0962  -79.5840 H         1 UNK         0.0837 
    105 H105      -76.0416   22.7471  -78.5111 H         1 UNK         0.0837 
    106 H106      -76.5906   23.4651  -76.2156 H         1 UNK         0.3020 
    107 H107      -75.9560   23.0470  -73.6466 H         1 UNK         0.1245 
    108 H108      -76.3926   25.8495  -72.5014 H         1 UNK         0.0781 
    109 H109      -74.9674   24.8710  -72.2416 H         1 UNK         0.0781 
    110 H110      -75.0524   24.7303  -69.5735 H         1 UNK         0.0836 
    111 H111      -76.5213   24.4390  -68.6731 H         1 UNK         0.0836 
    112 H112      -78.1122   24.9807  -74.3801 H         1 UNK         0.3022 
    113 H113      -80.2633   22.2334  -75.1607 H         1 UNK         0.0747 
    114 H114      -81.9327   23.5039  -73.7896 H         1 UNK         0.0793 
    115 H115      -80.8809   22.4852  -72.8192 H         1 UNK         0.0793 
    116 H116      -80.6139   24.2141  -72.8626 H         1 UNK         0.0793 
    117 H117      -80.5955   25.1009  -75.3094 H         1 UNK         0.3047 
    118 H118      -79.6151   25.1595  -78.8013 H         1 UNK         0.0822 
    119 H119      -81.9929   24.5224  -78.5865 H         1 UNK         0.0807 
    120 H120      -81.8406   26.2567  -78.8144 H         1 UNK         0.0807 
    121 H121      -82.2016   25.6043  -77.2186 H         1 UNK         0.0807 
    122 H122      -80.1608   26.9439  -76.4682 H         1 UNK         0.2946 
    123 H123      -77.0364   28.3381  -76.5621 H         1 UNK         0.1144 
    124 H124      -77.8275   30.6080  -77.2135 H         1 UNK         0.0793 
    125 H125      -79.2279   29.9075  -78.0300 H         1 UNK         0.0793 
    126 H126      -77.6036   29.6032  -78.6322 H         1 UNK         0.0793 
    127 H127      -79.5311   29.4523  -75.6177 H         1 UNK         0.2896 
@<TRIPOS>BOND
     1    1    2 1    
     2    1   67 1    
     3    1   68 1    
     4    1   69 1    
     5    2    3 2    
     6    2    4 am   BACKBONE|DICT|INTERRES
     7    4    5 1    
     8    4   70 1    
     9    5    6 1    
    10    5   65 1    
    11    5   71 1    
    12    6    7 1    
    13    6   72 1    
    14    6   73 1    
    15    7    8 1    
    16    8    9 1    
    17    8   74 1    
    18    8   75 1    
    19    9   10 ar   
    20    9   14 ar   
    21   10   11 ar   
    22   10   76 1    
    23   11   12 ar   
    24   11   48 1    
    25   12   13 ar   
    26   12   77 1    
    27   13   14 ar   
    28   13   15 1    
    29   14   78 1    
    30   15   16 1    
    31   15   79 1    
    32   15   80 1    
    33   16   17 1    
    34   17   18 1    
    35   17   81 1    
    36   17   82 1    
    37   18   19 1    
    38   18   22 1    
    39   18   83 1    
    40   19   20 am   BACKBONE|DICT|INTERRES
    41   19   21 2    
    42   20   84 1    
    43   20   85 1    
    44   22   23 am   BACKBONE|DICT|INTERRES
    45   22   86 1    
    46   23   24 2    
    47   23   25 1    
    48   25   26 1    
    49   25   27 1    
    50   25   87 1    
    51   26   88 1    
    52   26   89 1    
    53   26   90 1    
    54   27   28 am   BACKBONE|DICT|INTERRES
    55   27   91 1    
    56   28   29 2    
    57   28   30 1    
    58   30   31 1    
    59   30   32 1    
    60   30   92 1    
    61   31   93 1    
    62   31   94 1    
    63   31   95 1    
    64   32   33 am   BACKBONE|DICT|INTERRES
    65   32   96 1    
    66   33   34 2    
    67   33   35 1    
    68   35   36 1    
    69   35   37 1    
    70   35   97 1    
    71   36   98 1    
    72   36   99 1    
    73   36  100 1    
    74   37   38 am   BACKBONE|DICT|INTERRES
    75   37  101 1    
    76   38   39 2    
    77   38   40 1    
    78   40   41 1    
    79   40   42 1    
    80   40  102 1    
    81   41  103 1    
    82   41  104 1    
    83   41  105 1    
    84   42   43 am   BACKBONE|DICT|INTERRES
    85   42  106 1    
    86   43   44 2    
    87   43   45 1    
    88   45   46 1    
    89   45   49 1    
    90   45  107 1    
    91   46   47 1    
    92   46  108 1    
    93   46  109 1    
    94   47   48 1    
    95   48  110 1    
    96   48  111 1    
    97   49   50 am   BACKBONE|DICT|INTERRES
    98   49  112 1    
    99   50   51 2    
   100   50   52 1    
   101   52   53 1    
   102   52   54 1    
   103   52  113 1    
   104   53  114 1    
   105   53  115 1    
   106   53  116 1    
   107   54   55 am   BACKBONE|DICT|INTERRES
   108   54  117 1    
   109   55   56 2    
   110   55   57 1    
   111   57   58 1    
   112   57   59 1    
   113   57  118 1    
   114   58  119 1    
   115   58  120 1    
   116   58  121 1    
   117   59   60 am   BACKBONE|DICT|INTERRES
   118   59  122 1    
   119   60   61 2    
   120   60   62 1    
   121   62   63 1    
   122   62   64 1    
   123   62  123 1    
   124   63  124 1    
   125   63  125 1    
   126   63  126 1    
   127   64   65 am   BACKBONE|DICT|INTERRES
   128   64  127 1    
   129   65   66 2    
@<TRIPOS>SUBSTRUCTURE
     1 UNK         1 GROUP             0       ****    0 ROOT    
