@<TRIPOS>MOLECULE
3R135
127   129    1
SMALL
USER_CHARGES


@<TRIPOS>ATOM
      1 CA        -82.4576   30.2387  -77.7410 C.3       0 UNK        -0.1998 
      2 C         -81.6570   28.9584  -77.9251 C.2       0 UNK         0.4909 
      3 O         -81.7686   28.3108  -78.9661 O.2       0 UNK        -0.5240 
      4 N         -80.8473   28.5930  -76.9231 N.am      1 UNK        -0.4739 
      5 CA        -80.0333   27.3718  -76.8960 C.3       1 UNK         0.0864 
      6 C6        -78.9694   27.4025  -75.7653 C.3       11 UNK        -0.0881 
      7 S7        -79.6347   27.8954  -74.1321 S.3       11 UNK        -0.2682 
      8 C8        -78.4263   29.1575  -73.5865 C.3       11 UNK         0.0289 
      9 C9        -77.3360   28.6436  -72.6434 C.ar      11 UNK        -0.0687 
     10 C10       -76.9435   27.2998  -72.6053 C.ar      11 UNK        -0.0823 
     11 C11       -75.9857   26.8559  -71.6879 C.ar      11 UNK        -0.0830 
     12 C12       -75.3908   27.7749  -70.8199 C.ar      11 UNK        -0.1021 
     13 C13       -75.7411   29.1273  -70.8702 C.ar      11 UNK        -0.0753 
     14 C14       -76.7147   29.5512  -71.7796 C.ar      11 UNK        -0.0933 
     15 C15       -75.1030   30.1312  -69.9209 C.3       11 UNK         0.0166 
     16 S16       -73.6223   30.9056  -70.6432 S.3       11 UNK        -0.2615 
     17 C17       -72.3314   29.6960  -70.1897 C.3       11 UNK        -0.0865 
     18 CA        -71.1192   29.6994  -71.1555 C.3       10 UNK         0.0862 
     19 C         -70.0098   28.7379  -70.6343 C.2       10 UNK         0.5551 
     20 N         -69.7079   27.6376  -71.3131 N.am      10 UNK        -0.7319 
     21 O         -69.4129   28.9997  -69.5929 O.2       10 UNK        -0.5018 
     22 N         -71.5351   29.4775  -72.5504 N.am      10 UNK        -0.4509 
     23 C         -70.7730   29.7114  -73.6268 C.2       10 UNK         0.4899 
     24 O         -69.6195   30.1390  -73.5754 O.2       10 UNK        -0.4839 
     25 CA        -71.4025   29.4198  -74.9984 C.3       9 UNK         0.0222 
     26 CB        -71.0867   27.9811  -75.4391 C.3       9 UNK        -0.1966 
     27 N         -72.8520   29.6176  -75.0222 N.am      9 UNK        -0.4218 
     28 C         -73.4858   30.7953  -74.9749 C.2       9 UNK         0.5020 
     29 O         -72.9087   31.8822  -74.9070 O.2       9 UNK        -0.5274 
     30 CA        -75.0257   30.7326  -75.0567 C.3       8 UNK         0.0270 
     31 CB        -75.6917   32.1130  -74.9086 C.3       8 UNK        -0.1976 
     32 N         -75.4915   30.1008  -76.2987 N.am      8 UNK        -0.4313 
     33 C         -75.4408   28.7865  -76.5440 C.2       8 UNK         0.5041 
     34 O         -74.9998   27.9654  -75.7341 O.2       8 UNK        -0.5577 
     35 CA        -75.9335   28.2975  -77.9108 C.3       7 UNK         0.0284 
     36 CB        -74.8901   28.5795  -79.0074 C.3       7 UNK        -0.1958 
     37 N         -76.1484   26.8629  -77.7750 N.am      7 UNK        -0.4454 
     38 C         -76.8374   26.0468  -78.5745 C.2       7 UNK         0.5089 
     39 O         -77.3968   26.4244  -79.6041 O.2       7 UNK        -0.5125 
     40 CA        -76.9711   24.5707  -78.1398 C.3       6 UNK         0.0408 
     41 CB        -76.4512   23.6094  -79.2277 C.3       6 UNK        -0.1791 
     42 N         -76.3977   24.2493  -76.8211 N.am      6 UNK        -0.4762 
     43 C         -75.1024   24.2211  -76.4567 C.2       6 UNK         0.5007 
     44 O         -74.1717   24.4768  -77.2202 O.2       6 UNK        -0.5032 
     45 CA        -74.7872   23.8905  -74.9797 C.3       5 UNK         0.0783 
     46 C46       -74.5317   25.2070  -74.2067 C.3       11 UNK        -0.0857 
     47 S47       -74.0742   24.9704  -72.4580 S.3       11 UNK        -0.2512 
     48 C48       -75.6290   25.3770  -71.5985 C.3       11 UNK         0.0225 
     49 N         -75.8328   23.0705  -74.3558 N.am      5 UNK        -0.4615 
     50 C         -76.1142   21.8066  -74.6948 C.2       4 UNK         0.5053 
     51 O         -75.4454   21.1586  -75.5006 O.2       4 UNK        -0.5105 
     52 CA        -77.3449   21.1395  -74.0478 C.3       4 UNK         0.0263 
     53 CB        -76.8938   20.0890  -73.0188 C.3       4 UNK        -0.1981 
     54 N         -78.3365   22.0217  -73.4122 N.am      4 UNK        -0.4224 
     55 C         -78.9804   23.0582  -73.9683 C.2       3 UNK         0.4895 
     56 O         -78.6856   23.5526  -75.0594 O.2       3 UNK        -0.5091 
     57 CA        -80.1276   23.6527  -73.1319 C.3       3 UNK         0.0250 
     58 CB        -79.5912   24.5266  -71.9868 C.3       3 UNK        -0.1996 
     59 N         -81.0299   24.4547  -73.9581 N.am      3 UNK        -0.4254 
     60 C         -82.0037   23.9575  -74.7344 C.2       2 UNK         0.5004 
     61 O         -82.3233   22.7679  -74.7561 O.2       2 UNK        -0.5226 
     62 CA        -82.7525   24.9545  -75.6407 C.3       2 UNK         0.0269 
     63 CB        -84.0535   25.4239  -74.9700 C.3       2 UNK        -0.1926 
     64 N         -81.9412   26.1245  -75.9887 N.am      2 UNK        -0.4687 
     65 C         -80.8848   26.0899  -76.8140 C.2       1 UNK         0.5165 
     66 O         -80.5697   25.1043  -77.4804 O.2       1 UNK        -0.5079 
     67 H67       -82.2554   30.7119  -76.7802 H         1 UNK         0.0900 
     68 H68       -82.2119   30.9513  -78.5280 H         1 UNK         0.0900 
     69 H69       -83.5246   30.0247  -77.7956 H         1 UNK         0.0900 
     70 H70       -80.7973   29.1598  -76.0877 H         1 UNK         0.2959 
     71 H71       -79.5022   27.3213  -77.8494 H         1 UNK         0.1079 
     72 H72       -78.1909   28.1061  -76.0507 H         1 UNK         0.0837 
     73 H73       -78.4650   26.4386  -75.6676 H         1 UNK         0.0837 
     74 H74       -78.9933   29.9355  -73.0732 H         1 UNK         0.0685 
     75 H75       -77.9618   29.6449  -74.4436 H         1 UNK         0.0685 
     76 H76       -77.3930   26.5888  -73.2811 H         1 UNK         0.1434 
     77 H77       -74.6618   27.4302  -70.1003 H         1 UNK         0.1329 
     78 H78       -76.9972   30.5949  -71.8068 H         1 UNK         0.1335 
     79 H79       -75.8220   30.9160  -69.6810 H         1 UNK         0.0680 
     80 H80       -74.8504   29.6562  -68.9715 H         1 UNK         0.0680 
     81 H81       -72.0094   29.9265  -69.1721 H         1 UNK         0.1032 
     82 H82       -72.7634   28.6964  -70.1488 H         1 UNK         0.1032 
     83 H83       -70.6823   30.6993  -71.1184 H         1 UNK         0.0461 
     84 H84       -70.1934   27.4173  -72.1672 H         1 UNK         0.3453 
     85 H85       -68.9866   27.0247  -70.9672 H         1 UNK         0.3453 
     86 H86       -72.4770   29.1422  -72.6863 H         1 UNK         0.2984 
     87 H87       -70.9563   30.1054  -75.7217 H         1 UNK         0.0554 
     88 H88       -70.0101   27.8058  -75.4596 H         1 UNK         0.0847 
     89 H89       -71.4656   27.7810  -76.4417 H         1 UNK         0.0847 
     90 H90       -71.5251   27.2450  -74.7639 H         1 UNK         0.0847 
     91 H91       -73.4392   28.7921  -75.1327 H         1 UNK         0.3141 
     92 H92       -75.3544   30.1207  -74.2150 H         1 UNK         0.0743 
     93 H93       -75.4144   32.7858  -75.7209 H         1 UNK         0.0784 
     94 H94       -76.7785   32.0301  -74.8949 H         1 UNK         0.0784 
     95 H95       -75.3942   32.5892  -73.9731 H         1 UNK         0.0784 
     96 H96       -75.8220   30.7225  -77.0233 H         1 UNK         0.3213 
     97 H97       -76.8801   28.7858  -78.1509 H         1 UNK         0.0855 
     98 H98       -73.9358   28.0997  -78.7851 H         1 UNK         0.0814 
     99 H99       -74.7029   29.6490  -79.1093 H         1 UNK         0.0814 
    100 H100      -75.2257   28.2187  -79.9797 H         1 UNK         0.0814 
    101 H101      -75.7205   26.4850  -76.9372 H         1 UNK         0.3105 
    102 H102      -78.0408   24.3884  -78.0349 H         1 UNK         0.0547 
    103 H103      -76.5763   22.5683  -78.9303 H         1 UNK         0.0837 
    104 H104      -75.3962   23.7730  -79.4477 H         1 UNK         0.0837 
    105 H105      -76.9984   23.7467  -80.1611 H         1 UNK         0.0837 
    106 H106      -77.0909   24.0167  -76.1125 H         1 UNK         0.3020 
    107 H107      -73.8634   23.3072  -74.9757 H         1 UNK         0.1245 
    108 H108      -75.4029   25.8559  -74.2722 H         1 UNK         0.0781 
    109 H109      -73.7162   25.7633  -74.6734 H         1 UNK         0.0781 
    110 H110      -75.5283   25.0950  -70.5493 H         1 UNK         0.0836 
    111 H111      -76.4377   24.7623  -71.9938 H         1 UNK         0.0836 
    112 H112      -76.4306   23.5285  -73.6870 H         1 UNK         0.3022 
    113 H113      -77.8661   20.6191  -74.8537 H         1 UNK         0.0747 
    114 H114      -77.7362   19.5031  -72.6505 H         1 UNK         0.0793 
    115 H115      -76.1848   19.3855  -73.4584 H         1 UNK         0.0793 
    116 H116      -76.4033   20.5513  -72.1611 H         1 UNK         0.0793 
    117 H117      -78.6392   21.7291  -72.4939 H         1 UNK         0.3047 
    118 H118      -80.6934   22.8256  -72.6970 H         1 UNK         0.0822 
    119 H119      -80.4023   24.8752  -71.3473 H         1 UNK         0.0807 
    120 H120      -79.0692   25.4048  -72.3601 H         1 UNK         0.0807 
    121 H121      -78.8975   23.9751  -71.3511 H         1 UNK         0.0807 
    122 H122      -80.8128   25.4376  -74.0393 H         1 UNK         0.2946 
    123 H123      -83.0094   24.4271  -76.5625 H         1 UNK         0.1144 
    124 H124      -84.6269   26.0761  -75.6293 H         1 UNK         0.0793 
    125 H125      -83.8586   25.9673  -74.0445 H         1 UNK         0.0793 
    126 H126      -84.6919   24.5749  -74.7214 H         1 UNK         0.0793 
    127 H127      -82.1333   26.9844  -75.4947 H         1 UNK         0.2896 
@<TRIPOS>BOND
     1    1    2 1    
     2    1   67 1    
     3    1   68 1    
     4    1   69 1    
     5    2    3 2    
     6    2    4 am   BACKBONE|DICT|INTERRES
     7    4    5 1    
     8    4   70 1    
     9    5    6 1    
    10    5   65 1    
    11    5   71 1    
    12    6    7 1    
    13    6   72 1    
    14    6   73 1    
    15    7    8 1    
    16    8    9 1    
    17    8   74 1    
    18    8   75 1    
    19    9   10 ar   
    20    9   14 ar   
    21   10   11 ar   
    22   10   76 1    
    23   11   12 ar   
    24   11   48 1    
    25   12   13 ar   
    26   12   77 1    
    27   13   14 ar   
    28   13   15 1    
    29   14   78 1    
    30   15   16 1    
    31   15   79 1    
    32   15   80 1    
    33   16   17 1    
    34   17   18 1    
    35   17   81 1    
    36   17   82 1    
    37   18   19 1    
    38   18   22 1    
    39   18   83 1    
    40   19   20 am   BACKBONE|DICT|INTERRES
    41   19   21 2    
    42   20   84 1    
    43   20   85 1    
    44   22   23 am   BACKBONE|DICT|INTERRES
    45   22   86 1    
    46   23   24 2    
    47   23   25 1    
    48   25   26 1    
    49   25   27 1    
    50   25   87 1    
    51   26   88 1    
    52   26   89 1    
    53   26   90 1    
    54   27   28 am   BACKBONE|DICT|INTERRES
    55   27   91 1    
    56   28   29 2    
    57   28   30 1    
    58   30   31 1    
    59   30   32 1    
    60   30   92 1    
    61   31   93 1    
    62   31   94 1    
    63   31   95 1    
    64   32   33 am   BACKBONE|DICT|INTERRES
    65   32   96 1    
    66   33   34 2    
    67   33   35 1    
    68   35   36 1    
    69   35   37 1    
    70   35   97 1    
    71   36   98 1    
    72   36   99 1    
    73   36  100 1    
    74   37   38 am   BACKBONE|DICT|INTERRES
    75   37  101 1    
    76   38   39 2    
    77   38   40 1    
    78   40   41 1    
    79   40   42 1    
    80   40  102 1    
    81   41  103 1    
    82   41  104 1    
    83   41  105 1    
    84   42   43 am   BACKBONE|DICT|INTERRES
    85   42  106 1    
    86   43   44 2    
    87   43   45 1    
    88   45   46 1    
    89   45   49 1    
    90   45  107 1    
    91   46   47 1    
    92   46  108 1    
    93   46  109 1    
    94   47   48 1    
    95   48  110 1    
    96   48  111 1    
    97   49   50 am   BACKBONE|DICT|INTERRES
    98   49  112 1    
    99   50   51 2    
   100   50   52 1    
   101   52   53 1    
   102   52   54 1    
   103   52  113 1    
   104   53  114 1    
   105   53  115 1    
   106   53  116 1    
   107   54   55 am   BACKBONE|DICT|INTERRES
   108   54  117 1    
   109   55   56 2    
   110   55   57 1    
   111   57   58 1    
   112   57   59 1    
   113   57  118 1    
   114   58  119 1    
   115   58  120 1    
   116   58  121 1    
   117   59   60 am   BACKBONE|DICT|INTERRES
   118   59  122 1    
   119   60   61 2    
   120   60   62 1    
   121   62   63 1    
   122   62   64 1    
   123   62  123 1    
   124   63  124 1    
   125   63  125 1    
   126   63  126 1    
   127   64   65 am   BACKBONE|DICT|INTERRES
   128   64  127 1    
   129   65   66 2    
@<TRIPOS>SUBSTRUCTURE
     1 UNK         1 GROUP             0       ****    0 ROOT    
