@<TRIPOS>MOLECULE
3R135
127   129    1
SMALL
USER_CHARGES


@<TRIPOS>ATOM
      1 CA        -79.4730   21.7568  -72.0974 C.3       0 UNK        -0.1998 
      2 C         -80.4406   22.8014  -72.6318 C.2       0 UNK         0.4909 
      3 O         -80.9098   22.6818  -73.7646 O.2       0 UNK        -0.5240 
      4 N         -80.7380   23.8260  -71.8223 N.am      1 UNK        -0.4739 
      5 CA        -81.5955   24.9715  -72.1468 C.3       1 UNK         0.0864 
      6 C6        -81.8136   25.9100  -70.9245 C.3       11 UNK        -0.0881 
      7 S7        -80.3374   26.1931  -69.8720 S.3       11 UNK        -0.2682 
      8 C8        -80.3756   27.9919  -69.5854 C.3       11 UNK         0.0289 
      9 C9        -79.4586   28.7351  -70.5451 C.ar      11 UNK        -0.0687 
     10 C10       -79.9014   29.0652  -71.8286 C.ar      11 UNK        -0.0823 
     11 C11       -79.0655   29.7312  -72.7303 C.ar      11 UNK        -0.0830 
     12 C12       -77.7746   30.0878  -72.3154 C.ar      11 UNK        -0.1021 
     13 C13       -77.3228   29.7788  -71.0301 C.ar      11 UNK        -0.0753 
     14 C14       -78.1666   29.0968  -70.1490 C.ar      11 UNK        -0.0933 
     15 C15       -75.9258   30.2026  -70.6040 C.3       11 UNK         0.0166 
     16 S16       -74.6574   29.0922  -71.2883 S.3       11 UNK        -0.2615 
     17 C17       -73.2644   30.2514  -71.4836 C.3       11 UNK        -0.0865 
     18 CA        -72.0490   29.6756  -72.2590 C.3       10 UNK         0.0862 
     19 C         -71.2544   28.5978  -71.4616 C.2       10 UNK         0.5551 
     20 N         -70.7773   27.5229  -72.0784 N.am      10 UNK        -0.7319 
     21 O         -71.0402   28.7504  -70.2612 O.2       10 UNK        -0.5018 
     22 N         -72.4031   29.2765  -73.6337 N.am      10 UNK        -0.4509 
     23 C         -71.6310   29.4944  -74.7062 C.2       10 UNK         0.4899 
     24 O         -70.5814   30.1399  -74.6749 O.2       10 UNK        -0.4839 
     25 CA        -72.1021   28.8581  -76.0293 C.3       9 UNK         0.0222 
     26 CB        -71.1135   29.0812  -77.1925 C.3       9 UNK        -0.1966 
     27 N         -72.4147   27.4295  -75.9012 N.am      9 UNK        -0.4218 
     28 C         -71.6265   26.4594  -75.4129 C.2       9 UNK         0.5020 
     29 O         -70.4884   26.6441  -74.9803 O.2       9 UNK        -0.5274 
     30 CA        -72.2115   25.0381  -75.3661 C.3       8 UNK         0.0270 
     31 CB        -72.8155   24.7573  -73.9814 C.3       8 UNK        -0.1976 
     32 N         -73.2003   24.7784  -76.4213 N.am      8 UNK        -0.4313 
     33 C         -72.8581   24.5610  -77.7004 C.2       8 UNK         0.5041 
     34 O         -71.6998   24.6167  -78.1164 O.2       8 UNK        -0.5577 
     35 CA        -73.9789   24.2079  -78.6834 C.3       7 UNK         0.0284 
     36 CB        -74.5082   22.7844  -78.4320 C.3       7 UNK        -0.1958 
     37 N         -75.0796   25.1705  -78.6110 N.am      7 UNK        -0.4454 
     38 C         -75.3743   26.0423  -79.5836 C.2       7 UNK         0.5089 
     39 O         -74.7137   26.1691  -80.6157 O.2       7 UNK        -0.5125 
     40 CA        -76.6365   26.9020  -79.4120 C.3       6 UNK         0.0408 
     41 CB        -77.8704   26.1536  -79.9407 C.3       6 UNK        -0.1791 
     42 N         -76.8945   27.3664  -78.0472 N.am      6 UNK        -0.4762 
     43 C         -76.1714   28.3102  -77.4267 C.2       6 UNK         0.5007 
     44 O         -75.0967   28.7361  -77.8484 O.2       6 UNK        -0.5032 
     45 CA        -76.7790   28.9156  -76.1469 C.3       5 UNK         0.0783 
     46 C46       -78.0521   29.7313  -76.4943 C.3       11 UNK        -0.0857 
     47 S47       -78.4886   30.9657  -75.2292 S.3       11 UNK        -0.2512 
     48 C48       -79.6118   30.0352  -74.1274 C.3       11 UNK         0.0225 
     49 N         -77.0391   27.8592  -75.1694 N.am      5 UNK        -0.4615 
     50 C         -76.0961   27.2858  -74.4098 C.2       4 UNK         0.5053 
     51 O         -74.9329   27.6833  -74.3523 O.2       4 UNK        -0.5105 
     52 CA        -76.4977   26.0040  -73.6541 C.3       4 UNK         0.0263 
     53 CB        -77.0213   26.3076  -72.2450 C.3       4 UNK        -0.1981 
     54 N         -77.4862   25.2213  -74.3969 N.am      4 UNK        -0.4224 
     55 C         -77.2026   24.5753  -75.5381 C.2       3 UNK         0.4895 
     56 O         -76.0710   24.5355  -76.0232 O.2       3 UNK        -0.5091 
     57 CA        -78.3563   23.8963  -76.2967 C.3       3 UNK         0.0250 
     58 CB        -78.3547   22.3822  -76.0409 C.3       3 UNK        -0.1996 
     59 N         -79.6739   24.4572  -75.9838 N.am      3 UNK        -0.4254 
     60 C         -80.0636   25.6941  -76.3315 C.2       2 UNK         0.5004 
     61 O         -79.3638   26.4665  -76.9863 O.2       2 UNK        -0.5226 
     62 CA        -81.4284   26.1841  -75.8122 C.3       2 UNK         0.0269 
     63 CB        -82.5292   25.8906  -76.8429 C.3       2 UNK        -0.1926 
     64 N         -81.8130   25.6232  -74.5108 N.am      2 UNK        -0.4687 
     65 C         -81.0799   25.7205  -73.3920 C.2       1 UNK         0.5165 
     66 O         -80.0052   26.3150  -73.3462 O.2       1 UNK        -0.5079 
     67 H67       -79.3533   21.8327  -71.0168 H         1 UNK         0.0900 
     68 H68       -78.4932   21.8800  -72.5575 H         1 UNK         0.0900 
     69 H69       -79.8356   20.7551  -72.3262 H         1 UNK         0.0900 
     70 H70       -80.2893   23.8901  -70.9189 H         1 UNK         0.2959 
     71 H71       -82.5731   24.5584  -72.4049 H         1 UNK         0.1079 
     72 H72       -82.2400   26.8631  -71.2421 H         1 UNK         0.0837 
     73 H73       -82.5707   25.4659  -70.2764 H         1 UNK         0.0837 
     74 H74       -81.3954   28.3715  -69.6615 H         1 UNK         0.0685 
     75 H75       -80.0643   28.1816  -68.5571 H         1 UNK         0.0685 
     76 H76       -80.8974   28.7789  -72.1361 H         1 UNK         0.1434 
     77 H77       -77.0989   30.6016  -72.9830 H         1 UNK         0.1329 
     78 H78       -77.8175   28.8462  -69.1568 H         1 UNK         0.1335 
     79 H79       -75.7514   31.2258  -70.9400 H         1 UNK         0.0680 
     80 H80       -75.8384   30.2182  -69.5167 H         1 UNK         0.0680 
     81 H81       -72.9601   30.6042  -70.4964 H         1 UNK         0.1032 
     82 H82       -73.6265   31.1352  -72.0109 H         1 UNK         0.1032 
     83 H83       -71.3459   30.5075  -72.3274 H         1 UNK         0.0461 
     84 H84       -70.2574   26.8453  -71.5445 H         1 UNK         0.3453 
     85 H85       -70.8683   27.4102  -73.0802 H         1 UNK         0.3453 
     86 H86       -73.2475   28.7198  -73.7353 H         1 UNK         0.2984 
     87 H87       -73.0359   29.3580  -76.2870 H         1 UNK         0.0554 
     88 H88       -71.5012   28.6684  -78.1239 H         1 UNK         0.0847 
     89 H89       -70.1469   28.6158  -76.9959 H         1 UNK         0.0847 
     90 H90       -70.9371   30.1445  -77.3589 H         1 UNK         0.0847 
     91 H91       -73.3610   27.1748  -76.1489 H         1 UNK         0.3141 
     92 H92       -71.3855   24.3376  -75.5090 H         1 UNK         0.0743 
     93 H93       -73.4352   25.5836  -73.6380 H         1 UNK         0.0784 
     94 H94       -73.4141   23.8462  -73.9716 H         1 UNK         0.0784 
     95 H95       -72.0247   24.6352  -73.2402 H         1 UNK         0.0784 
     96 H96       -74.1783   24.6973  -76.1514 H         1 UNK         0.3213 
     97 H97       -73.5384   24.2100  -79.6829 H         1 UNK         0.0855 
     98 H98       -74.9383   22.6697  -77.4373 H         1 UNK         0.0814 
     99 H99       -73.7053   22.0517  -78.5226 H         1 UNK         0.0814 
    100 H100      -75.2745   22.5150  -79.1588 H         1 UNK         0.0814 
    101 H101      -75.6469   25.1457  -77.7686 H         1 UNK         0.3105 
    102 H102      -76.5048   27.7899  -80.0346 H         1 UNK         0.0547 
    103 H103      -77.7276   25.8490  -80.9784 H         1 UNK         0.0837 
    104 H104      -78.0771   25.2530  -79.3637 H         1 UNK         0.0837 
    105 H105      -78.7606   26.7821  -79.9081 H         1 UNK         0.0837 
    106 H106      -77.7739   27.0656  -77.6279 H         1 UNK         0.3020 
    107 H107      -76.0338   29.5994  -75.7326 H         1 UNK         0.1245 
    108 H108      -78.9046   29.0808  -76.6943 H         1 UNK         0.0781 
    109 H109      -77.9004   30.2998  -77.4146 H         1 UNK         0.0781 
    110 H110      -79.9025   29.0957  -74.5987 H         1 UNK         0.0836 
    111 H111      -80.5279   30.6176  -74.0201 H         1 UNK         0.0836 
    112 H112      -77.9648   27.4560  -75.1722 H         1 UNK         0.3022 
    113 H113      -75.6137   25.3786  -73.5422 H         1 UNK         0.0747 
    114 H114      -77.4195   25.4166  -71.7598 H         1 UNK         0.0793 
    115 H115      -76.2251   26.6927  -71.6098 H         1 UNK         0.0793 
    116 H116      -77.8100   27.0575  -72.2631 H         1 UNK         0.0793 
    117 H117      -78.4469   25.2896  -74.0758 H         1 UNK         0.3047 
    118 H118      -78.1738   24.0510  -77.3611 H         1 UNK         0.0822 
    119 H119      -79.1398   21.8821  -76.6081 H         1 UNK         0.0807 
    120 H120      -78.5018   22.1491  -74.9873 H         1 UNK         0.0807 
    121 H121      -77.4047   21.9381  -76.3417 H         1 UNK         0.0807 
    122 H122      -80.2868   23.8942  -75.4024 H         1 UNK         0.2946 
    123 H123      -81.3519   27.2668  -75.6918 H         1 UNK         0.1144 
    124 H124      -82.2759   26.3152  -77.8156 H         1 UNK         0.0793 
    125 H125      -83.4825   26.3247  -76.5412 H         1 UNK         0.0793 
    126 H126      -82.6758   24.8189  -76.9832 H         1 UNK         0.0793 
    127 H127      -82.6641   25.0794  -74.4896 H         1 UNK         0.2896 
@<TRIPOS>BOND
     1    1    2 1    
     2    1   67 1    
     3    1   68 1    
     4    1   69 1    
     5    2    3 2    
     6    2    4 am   BACKBONE|DICT|INTERRES
     7    4    5 1    
     8    4   70 1    
     9    5    6 1    
    10    5   65 1    
    11    5   71 1    
    12    6    7 1    
    13    6   72 1    
    14    6   73 1    
    15    7    8 1    
    16    8    9 1    
    17    8   74 1    
    18    8   75 1    
    19    9   10 ar   
    20    9   14 ar   
    21   10   11 ar   
    22   10   76 1    
    23   11   12 ar   
    24   11   48 1    
    25   12   13 ar   
    26   12   77 1    
    27   13   14 ar   
    28   13   15 1    
    29   14   78 1    
    30   15   16 1    
    31   15   79 1    
    32   15   80 1    
    33   16   17 1    
    34   17   18 1    
    35   17   81 1    
    36   17   82 1    
    37   18   19 1    
    38   18   22 1    
    39   18   83 1    
    40   19   20 am   BACKBONE|DICT|INTERRES
    41   19   21 2    
    42   20   84 1    
    43   20   85 1    
    44   22   23 am   BACKBONE|DICT|INTERRES
    45   22   86 1    
    46   23   24 2    
    47   23   25 1    
    48   25   26 1    
    49   25   27 1    
    50   25   87 1    
    51   26   88 1    
    52   26   89 1    
    53   26   90 1    
    54   27   28 am   BACKBONE|DICT|INTERRES
    55   27   91 1    
    56   28   29 2    
    57   28   30 1    
    58   30   31 1    
    59   30   32 1    
    60   30   92 1    
    61   31   93 1    
    62   31   94 1    
    63   31   95 1    
    64   32   33 am   BACKBONE|DICT|INTERRES
    65   32   96 1    
    66   33   34 2    
    67   33   35 1    
    68   35   36 1    
    69   35   37 1    
    70   35   97 1    
    71   36   98 1    
    72   36   99 1    
    73   36  100 1    
    74   37   38 am   BACKBONE|DICT|INTERRES
    75   37  101 1    
    76   38   39 2    
    77   38   40 1    
    78   40   41 1    
    79   40   42 1    
    80   40  102 1    
    81   41  103 1    
    82   41  104 1    
    83   41  105 1    
    84   42   43 am   BACKBONE|DICT|INTERRES
    85   42  106 1    
    86   43   44 2    
    87   43   45 1    
    88   45   46 1    
    89   45   49 1    
    90   45  107 1    
    91   46   47 1    
    92   46  108 1    
    93   46  109 1    
    94   47   48 1    
    95   48  110 1    
    96   48  111 1    
    97   49   50 am   BACKBONE|DICT|INTERRES
    98   49  112 1    
    99   50   51 2    
   100   50   52 1    
   101   52   53 1    
   102   52   54 1    
   103   52  113 1    
   104   53  114 1    
   105   53  115 1    
   106   53  116 1    
   107   54   55 am   BACKBONE|DICT|INTERRES
   108   54  117 1    
   109   55   56 2    
   110   55   57 1    
   111   57   58 1    
   112   57   59 1    
   113   57  118 1    
   114   58  119 1    
   115   58  120 1    
   116   58  121 1    
   117   59   60 am   BACKBONE|DICT|INTERRES
   118   59  122 1    
   119   60   61 2    
   120   60   62 1    
   121   62   63 1    
   122   62   64 1    
   123   62  123 1    
   124   63  124 1    
   125   63  125 1    
   126   63  126 1    
   127   64   65 am   BACKBONE|DICT|INTERRES
   128   64  127 1    
   129   65   66 2    
@<TRIPOS>SUBSTRUCTURE
     1 UNK         1 GROUP             0       ****    0 ROOT    
