@<TRIPOS>MOLECULE
3R135
127   129    1
SMALL
USER_CHARGES


@<TRIPOS>ATOM
      1 CA        -81.0548   30.0134  -76.1145 C.3       0 UNK        -0.1998 
      2 C         -80.7122   29.0057  -75.0282 C.2       0 UNK         0.4909 
      3 O         -79.6540   28.3816  -75.0859 O.2       0 UNK        -0.5240 
      4 N         -81.6000   28.8367  -74.0406 N.am      1 UNK        -0.4739 
      5 CA        -81.4441   27.9104  -72.9134 C.3       1 UNK         0.0864 
      6 C6        -82.2271   28.3856  -71.6609 C.3       11 UNK        -0.0881 
      7 S7        -81.7501   30.0545  -71.0959 S.3       11 UNK        -0.2682 
      8 C8        -80.6901   29.6855  -69.6628 C.3       11 UNK         0.0289 
      9 C9        -79.2718   29.3326  -70.0849 C.ar      11 UNK        -0.0687 
     10 C10       -78.8587   27.9989  -70.1576 C.ar      11 UNK        -0.0823 
     11 C11       -77.5481   27.6826  -70.5312 C.ar      11 UNK        -0.0830 
     12 C12       -76.6438   28.7124  -70.8129 C.ar      11 UNK        -0.1021 
     13 C13       -77.0452   30.0493  -70.7407 C.ar      11 UNK        -0.0753 
     14 C14       -78.3620   30.3515  -70.3817 C.ar      11 UNK        -0.0933 
     15 C15       -76.0558   31.1721  -71.0178 C.3       11 UNK         0.0166 
     16 S16       -75.7550   31.3980  -72.8012 S.3       11 UNK        -0.2615 
     17 C17       -74.1886   30.4859  -73.0430 C.3       11 UNK        -0.0865 
     18 CA        -72.9871   31.4102  -73.4182 C.3       10 UNK         0.0862 
     19 C         -72.3333   32.1288  -72.1965 C.2       10 UNK         0.5551 
     20 N         -73.1187   32.8385  -71.3998 N.am      10 UNK        -0.7319 
     21 O         -71.1232   32.0889  -71.9794 O.2       10 UNK        -0.5018 
     22 N         -72.0075   30.7330  -74.2848 N.am      10 UNK        -0.4509 
     23 C         -71.3293   29.6180  -73.9871 C.2       10 UNK         0.4899 
     24 O         -71.4946   28.9525  -72.9620 O.2       10 UNK        -0.4839 
     25 CA        -70.2664   29.1738  -75.0053 C.3       9 UNK         0.0222 
     26 CB        -68.8514   29.4405  -74.4659 C.3       9 UNK        -0.1966 
     27 N         -70.4191   27.7483  -75.2941 N.am      9 UNK        -0.4218 
     28 C         -71.3869   27.2470  -76.0712 C.2       9 UNK         0.5020 
     29 O         -72.1338   27.9479  -76.7591 O.2       9 UNK        -0.5274 
     30 CA        -71.5351   25.7161  -76.0653 C.3       8 UNK         0.0270 
     31 CB        -71.8404   25.1913  -74.6491 C.3       8 UNK        -0.1976 
     32 N         -72.6302   25.3131  -76.9456 N.am      8 UNK        -0.4313 
     33 C         -72.4945   24.7615  -78.1571 C.2       8 UNK         0.5041 
     34 O         -71.4041   24.4898  -78.6635 O.2       8 UNK        -0.5577 
     35 CA        -73.7791   24.4301  -78.9432 C.3       7 UNK         0.0284 
     36 CB        -74.0135   22.9103  -78.9626 C.3       7 UNK        -0.1958 
     37 N         -74.9789   25.0878  -78.4194 N.am      7 UNK        -0.4454 
     38 C         -75.2716   26.3861  -78.5742 C.2       7 UNK         0.5089 
     39 O         -74.6049   27.1604  -79.2608 O.2       7 UNK        -0.5125 
     40 CA        -76.5063   26.9163  -77.8221 C.3       6 UNK         0.0408 
     41 CB        -77.7630   26.8104  -78.6993 C.3       6 UNK        -0.1791 
     42 N         -76.7524   26.2386  -76.5461 N.am      6 UNK        -0.4762 
     43 C         -75.9294   26.2571  -75.4867 C.2       6 UNK         0.5007 
     44 O         -74.8541   26.8512  -75.4650 O.2       6 UNK        -0.5032 
     45 CA        -76.3609   25.4349  -74.2607 C.3       5 UNK         0.0783 
     46 C46       -77.4189   26.2092  -73.4408 C.3       11 UNK        -0.0857 
     47 S47       -77.9662   25.3206  -71.9452 S.3       11 UNK        -0.2512 
     48 C48       -77.1037   26.2284  -70.6218 C.3       11 UNK         0.0225 
     49 N         -76.8150   24.1051  -74.6754 N.am      5 UNK        -0.4615 
     50 C         -76.0040   23.1273  -75.1014 C.2       4 UNK         0.5053 
     51 O         -74.7779   23.2213  -75.1326 O.2       4 UNK        -0.5105 
     52 CA        -76.6700   21.8300  -75.5927 C.3       4 UNK         0.0263 
     53 CB        -76.8590   20.8492  -74.4246 C.3       4 UNK        -0.1981 
     54 N         -77.9597   22.0584  -76.2493 N.am      4 UNK        -0.4224 
     55 C         -78.1173   22.7014  -77.4158 C.2       3 UNK         0.4895 
     56 O         -77.1850   23.1309  -78.0936 O.2       3 UNK        -0.5091 
     57 CA        -79.5659   22.9604  -77.8696 C.3       3 UNK         0.0250 
     58 CB        -80.1253   21.7425  -78.6218 C.3       3 UNK        -0.1996 
     59 N         -80.4626   23.3158  -76.7616 N.am      3 UNK        -0.4254 
     60 C         -80.2875   24.3828  -75.9702 C.2       2 UNK         0.5004 
     61 O         -79.3671   25.1904  -76.1149 O.2       2 UNK        -0.5226 
     62 CA        -81.2499   24.5392  -74.7884 C.3       2 UNK         0.0269 
     63 CB        -80.9784   23.4558  -73.7235 C.3       2 UNK        -0.1926 
     64 N         -81.0605   25.8721  -74.2198 N.am      2 UNK        -0.4687 
     65 C         -81.8578   26.4850  -73.3415 C.2       1 UNK         0.5165 
     66 O         -82.8954   25.9821  -72.9047 O.2       1 UNK        -0.5079 
     67 H67       -82.0211   30.4870  -75.9420 H         1 UNK         0.0900 
     68 H68       -81.0858   29.5202  -77.0857 H         1 UNK         0.0900 
     69 H69       -80.2956   30.7941  -76.1526 H         1 UNK         0.0900 
     70 H70       -82.4578   29.3698  -74.0466 H         1 UNK         0.2959 
     71 H71       -80.3867   27.8661  -72.6405 H         1 UNK         0.1079 
     72 H72       -83.2988   28.4071  -71.8679 H         1 UNK         0.0837 
     73 H73       -82.0974   27.6770  -70.8409 H         1 UNK         0.0837 
     74 H74       -80.6637   30.5644  -69.0168 H         1 UNK         0.0685 
     75 H75       -81.1301   28.8877  -69.0626 H         1 UNK         0.0685 
     76 H76       -79.5564   27.2043  -69.9306 H         1 UNK         0.1434 
     77 H77       -75.6265   28.4751  -71.0914 H         1 UNK         0.1329 
     78 H78       -78.6807   31.3834  -70.3234 H         1 UNK         0.1335 
     79 H79       -76.4362   32.1120  -70.6148 H         1 UNK         0.0680 
     80 H80       -75.1223   30.9793  -70.4875 H         1 UNK         0.0680 
     81 H81       -74.3737   29.7745  -73.8501 H         1 UNK         0.1032 
     82 H82       -73.9513   29.8736  -72.1718 H         1 UNK         0.1032 
     83 H83       -73.3681   32.2138  -74.0498 H         1 UNK         0.0461 
     84 H84       -74.1079   32.8998  -71.5859 H         1 UNK         0.3453 
     85 H85       -72.7169   33.3265  -70.6147 H         1 UNK         0.3453 
     86 H86       -71.7821   31.2179  -75.1417 H         1 UNK         0.2984 
     87 H87       -70.3899   29.7389  -75.9319 H         1 UNK         0.0554 
     88 H88       -68.0885   29.1495  -75.1883 H         1 UNK         0.0847 
     89 H89       -68.6616   28.8982  -73.5386 H         1 UNK         0.0847 
     90 H90       -68.7100   30.5015  -74.2551 H         1 UNK         0.0847 
     91 H91       -69.8647   27.1142  -74.7373 H         1 UNK         0.3141 
     92 H92       -70.5922   25.2826  -76.4048 H         1 UNK         0.0743 
     93 H93       -72.7212   25.6721  -74.2216 H         1 UNK         0.0784 
     94 H94       -72.0231   24.1163  -74.6577 H         1 UNK         0.0784 
     95 H95       -71.0088   25.3682  -73.9666 H         1 UNK         0.0784 
     96 H96       -73.5529   25.6051  -76.6440 H         1 UNK         0.3213 
     97 H97       -73.6253   24.7647  -79.9713 H         1 UNK         0.0855 
     98 H98       -74.1944   22.5196  -77.9604 H         1 UNK         0.0814 
     99 H99       -73.1481   22.3842  -79.3678 H         1 UNK         0.0814 
    100 H100      -74.8701   22.6488  -79.5840 H         1 UNK         0.0814 
    101 H101      -75.6415   24.5016  -77.9219 H         1 UNK         0.3105 
    102 H102      -76.3311   27.9716  -77.6032 H         1 UNK         0.0547 
    103 H103      -77.6299   27.3464  -79.6398 H         1 UNK         0.0837 
    104 H104      -77.9959   25.7734  -78.9431 H         1 UNK         0.0837 
    105 H105      -78.6319   27.2395  -78.1993 H         1 UNK         0.0837 
    106 H106      -77.6473   25.7599  -76.4522 H         1 UNK         0.3020 
    107 H107      -75.4774   25.3069  -73.6305 H         1 UNK         0.1245 
    108 H108      -78.3029   26.4005  -74.0460 H         1 UNK         0.0781 
    109 H109      -77.0373   27.1937  -73.1673 H         1 UNK         0.0781 
    110 H110      -76.0272   26.1564  -70.7851 H         1 UNK         0.0836 
    111 H111      -77.3015   25.7352  -69.6692 H         1 UNK         0.0836 
    112 H112      -77.8136   23.9688  -74.7135 H         1 UNK         0.3022 
    113 H113      -75.9987   21.3705  -76.3215 H         1 UNK         0.0747 
    114 H114      -77.2577   19.8944  -74.7680 H         1 UNK         0.0793 
    115 H115      -75.9075   20.6427  -73.9324 H         1 UNK         0.0793 
    116 H116      -77.5375   21.2457  -73.6680 H         1 UNK         0.0793 
    117 H117      -78.7839   21.7348  -75.7649 H         1 UNK         0.3047 
    118 H118      -79.5445   23.8063  -78.5599 H         1 UNK         0.0822 
    119 H119      -81.1145   21.9490  -79.0310 H         1 UNK         0.0807 
    120 H120      -80.2042   20.8667  -77.9765 H         1 UNK         0.0807 
    121 H121      -79.4806   21.4730  -79.4598 H         1 UNK         0.0807 
    122 H122      -81.2390   22.6937  -76.5859 H         1 UNK         0.2946 
    123 H123      -82.2739   24.4543  -75.1587 H         1 UNK         0.1144 
    124 H124      -81.6508   23.5512  -72.8712 H         1 UNK         0.0793 
    125 H125      -79.9569   23.5089  -73.3461 H         1 UNK         0.0793 
    126 H126      -81.1251   22.4541  -74.1287 H         1 UNK         0.0793 
    127 H127      -80.2758   26.3869  -74.6131 H         1 UNK         0.2896 
@<TRIPOS>BOND
     1    1    2 1    
     2    1   67 1    
     3    1   68 1    
     4    1   69 1    
     5    2    3 2    
     6    2    4 am   BACKBONE|DICT|INTERRES
     7    4    5 1    
     8    4   70 1    
     9    5    6 1    
    10    5   65 1    
    11    5   71 1    
    12    6    7 1    
    13    6   72 1    
    14    6   73 1    
    15    7    8 1    
    16    8    9 1    
    17    8   74 1    
    18    8   75 1    
    19    9   10 ar   
    20    9   14 ar   
    21   10   11 ar   
    22   10   76 1    
    23   11   12 ar   
    24   11   48 1    
    25   12   13 ar   
    26   12   77 1    
    27   13   14 ar   
    28   13   15 1    
    29   14   78 1    
    30   15   16 1    
    31   15   79 1    
    32   15   80 1    
    33   16   17 1    
    34   17   18 1    
    35   17   81 1    
    36   17   82 1    
    37   18   19 1    
    38   18   22 1    
    39   18   83 1    
    40   19   20 am   BACKBONE|DICT|INTERRES
    41   19   21 2    
    42   20   84 1    
    43   20   85 1    
    44   22   23 am   BACKBONE|DICT|INTERRES
    45   22   86 1    
    46   23   24 2    
    47   23   25 1    
    48   25   26 1    
    49   25   27 1    
    50   25   87 1    
    51   26   88 1    
    52   26   89 1    
    53   26   90 1    
    54   27   28 am   BACKBONE|DICT|INTERRES
    55   27   91 1    
    56   28   29 2    
    57   28   30 1    
    58   30   31 1    
    59   30   32 1    
    60   30   92 1    
    61   31   93 1    
    62   31   94 1    
    63   31   95 1    
    64   32   33 am   BACKBONE|DICT|INTERRES
    65   32   96 1    
    66   33   34 2    
    67   33   35 1    
    68   35   36 1    
    69   35   37 1    
    70   35   97 1    
    71   36   98 1    
    72   36   99 1    
    73   36  100 1    
    74   37   38 am   BACKBONE|DICT|INTERRES
    75   37  101 1    
    76   38   39 2    
    77   38   40 1    
    78   40   41 1    
    79   40   42 1    
    80   40  102 1    
    81   41  103 1    
    82   41  104 1    
    83   41  105 1    
    84   42   43 am   BACKBONE|DICT|INTERRES
    85   42  106 1    
    86   43   44 2    
    87   43   45 1    
    88   45   46 1    
    89   45   49 1    
    90   45  107 1    
    91   46   47 1    
    92   46  108 1    
    93   46  109 1    
    94   47   48 1    
    95   48  110 1    
    96   48  111 1    
    97   49   50 am   BACKBONE|DICT|INTERRES
    98   49  112 1    
    99   50   51 2    
   100   50   52 1    
   101   52   53 1    
   102   52   54 1    
   103   52  113 1    
   104   53  114 1    
   105   53  115 1    
   106   53  116 1    
   107   54   55 am   BACKBONE|DICT|INTERRES
   108   54  117 1    
   109   55   56 2    
   110   55   57 1    
   111   57   58 1    
   112   57   59 1    
   113   57  118 1    
   114   58  119 1    
   115   58  120 1    
   116   58  121 1    
   117   59   60 am   BACKBONE|DICT|INTERRES
   118   59  122 1    
   119   60   61 2    
   120   60   62 1    
   121   62   63 1    
   122   62   64 1    
   123   62  123 1    
   124   63  124 1    
   125   63  125 1    
   126   63  126 1    
   127   64   65 am   BACKBONE|DICT|INTERRES
   128   64  127 1    
   129   65   66 2    
@<TRIPOS>SUBSTRUCTURE
     1 UNK         1 GROUP             0       ****    0 ROOT    
