@<TRIPOS>MOLECULE
3R135
127   129    1
SMALL
USER_CHARGES


@<TRIPOS>ATOM
      1 CA        -84.1323   28.2455  -71.6000 C.3       0 UNK        -0.1998 
      2 C         -83.6780   28.0163  -73.0337 C.2       0 UNK         0.4909 
      3 O         -84.4961   27.6741  -73.8878 O.2       0 UNK        -0.5240 
      4 N         -82.3796   28.2085  -73.3020 N.am      1 UNK        -0.4739 
      5 CA        -81.7558   28.0193  -74.6179 C.3       1 UNK         0.0864 
      6 C6        -80.3307   28.6287  -74.6799 C.3       11 UNK        -0.0881 
      7 S7        -80.3160   30.4549  -74.5871 S.3       11 UNK        -0.2682 
      8 C8        -80.2002   30.8273  -72.8027 C.3       11 UNK         0.0289 
      9 C9        -78.9155   30.3145  -72.1665 C.ar      11 UNK        -0.0687 
     10 C10       -78.9137   29.0965  -71.4822 C.ar      11 UNK        -0.0823 
     11 C11       -77.7349   28.6012  -70.9221 C.ar      11 UNK        -0.0830 
     12 C12       -76.5683   29.3665  -70.9810 C.ar      11 UNK        -0.1021 
     13 C13       -76.5470   30.5767  -71.6807 C.ar      11 UNK        -0.0753 
     14 C14       -77.7281   31.0483  -72.2672 C.ar      11 UNK        -0.0933 
     15 C15       -75.2452   31.3559  -71.8326 C.3       11 UNK         0.0166 
     16 S16       -74.0013   30.4362  -72.8079 S.3       11 UNK        -0.2615 
     17 C17       -73.1529   29.4515  -71.5207 C.3       11 UNK        -0.0865 
     18 CA        -71.6114   29.3844  -71.7465 C.3       10 UNK         0.0862 
     19 C         -70.8108   28.9354  -70.4823 C.2       10 UNK         0.5551 
     20 N         -71.1198   29.4780  -69.3115 N.am      10 UNK        -0.7319 
     21 O         -69.8722   28.1430  -70.5489 O.2       10 UNK        -0.5018 
     22 N         -71.2582   28.6320  -72.9642 N.am      10 UNK        -0.4509 
     23 C         -71.4436   27.3220  -73.1773 C.2       10 UNK         0.4899 
     24 O         -72.0131   26.5642  -72.3899 O.2       10 UNK        -0.4839 
     25 CA        -70.9270   26.7828  -74.5232 C.3       9 UNK         0.0222 
     26 CB        -70.9173   25.2444  -74.5858 C.3       9 UNK        -0.1966 
     27 N         -71.7454   27.3014  -75.6176 N.am      9 UNK        -0.4218 
     28 C         -71.5919   28.5018  -76.1926 C.2       9 UNK         0.5020 
     29 O         -70.6849   29.2822  -75.8944 O.2       9 UNK        -0.5274 
     30 CA        -72.6469   28.9229  -77.2312 C.3       8 UNK         0.0270 
     31 CB        -72.0809   29.8436  -78.3340 C.3       8 UNK        -0.1976 
     32 N         -73.4075   27.7954  -77.7850 N.am      8 UNK        -0.4313 
     33 C         -73.0088   26.8650  -78.6678 C.2       8 UNK         0.5041 
     34 O         -71.8836   26.8370  -79.1674 O.2       8 UNK        -0.5577 
     35 CA        -74.0186   25.7596  -79.0560 C.3       7 UNK         0.0284 
     36 CB        -73.4503   24.3648  -78.7424 C.3       7 UNK        -0.1958 
     37 N         -75.3238   25.8904  -78.4017 N.am      7 UNK        -0.4454 
     38 C         -76.2557   26.8079  -78.6955 C.2       7 UNK         0.5089 
     39 O         -76.1772   27.5769  -79.6533 O.2       7 UNK        -0.5125 
     40 CA        -77.4470   26.9319  -77.7255 C.3       6 UNK         0.0408 
     41 CB        -78.6940   26.2601  -78.3185 C.3       6 UNK        -0.1791 
     42 N         -77.1946   26.3856  -76.3862 N.am      6 UNK        -0.4762 
     43 C         -76.2505   26.7983  -75.5269 C.2       6 UNK         0.5007 
     44 O         -75.4582   27.7062  -75.7759 O.2       6 UNK        -0.5032 
     45 CA        -76.1369   26.0384  -74.1917 C.3       5 UNK         0.0783 
     46 C46       -77.1125   26.6163  -73.1447 C.3       11 UNK        -0.0857 
     47 S47       -76.6964   26.0721  -71.4464 S.3       11 UNK        -0.2512 
     48 C48       -77.6894   27.1814  -70.3788 C.3       11 UNK         0.0225 
     49 N         -76.3413   24.6031  -74.3872 N.am      5 UNK        -0.4615 
     50 C         -75.4301   23.7681  -74.8971 C.2       4 UNK         0.5053 
     51 O         -74.3001   24.1160  -75.2350 O.2       4 UNK        -0.5105 
     52 CA        -75.8612   22.3027  -75.0792 C.3       4 UNK         0.0263 
     53 CB        -75.6668   21.5184  -73.7717 C.3       4 UNK        -0.1981 
     54 N         -77.2502   22.1696  -75.5292 N.am      4 UNK        -0.4224 
     55 C         -77.6816   22.5263  -76.7472 C.2       3 UNK         0.4895 
     56 O         -76.9469   22.9667  -77.6321 O.2       3 UNK        -0.5091 
     57 CA        -79.1916   22.3924  -77.0232 C.3       3 UNK         0.0250 
     58 CB        -79.5241   20.9631  -77.4815 C.3       3 UNK        -0.1996 
     59 N         -80.0889   22.7717  -75.9200 N.am      3 UNK        -0.4254 
     60 C         -80.0448   23.9197  -75.2287 C.2       2 UNK         0.5004 
     61 O         -79.1221   24.7304  -75.3038 O.2       2 UNK        -0.5226 
     62 CA        -81.2126   24.2063  -74.2682 C.3       2 UNK         0.0269 
     63 CB        -80.9482   23.5491  -72.9038 C.3       2 UNK        -0.1926 
     64 N         -81.4183   25.6461  -74.0647 N.am      2 UNK        -0.4687 
     65 C         -81.7237   26.5314  -75.0278 C.2       1 UNK         0.5165 
     66 O         -81.9813   26.2184  -76.1914 O.2       1 UNK        -0.5079 
     67 H67       -83.3107   28.5557  -70.9546 H         1 UNK         0.0900 
     68 H68       -84.8980   29.0201  -71.5689 H         1 UNK         0.0900 
     69 H69       -84.5576   27.3295  -71.1908 H         1 UNK         0.0900 
     70 H70       -81.7646   28.5065  -72.5618 H         1 UNK         0.2959 
     71 H71       -82.3761   28.5333  -75.3560 H         1 UNK         0.1079 
     72 H72       -79.8557   28.3693  -75.6288 H         1 UNK         0.0837 
     73 H73       -79.6850   28.2029  -73.9135 H         1 UNK         0.0837 
     74 H74       -80.2538   31.9095  -72.6751 H         1 UNK         0.0685 
     75 H75       -81.0723   30.4283  -72.2848 H         1 UNK         0.0685 
     76 H76       -79.8175   28.5069  -71.4300 H         1 UNK         0.1434 
     77 H77       -75.6613   28.9755  -70.5452 H         1 UNK         0.1329 
     78 H78       -77.7242   31.9811  -72.8145 H         1 UNK         0.1335 
     79 H79       -75.4334   32.3035  -72.3395 H         1 UNK         0.0680 
     80 H80       -74.8516   31.6173  -70.8498 H         1 UNK         0.0680 
     81 H81       -73.3839   29.8931  -70.5520 H         1 UNK         0.1032 
     82 H82       -73.5856   28.4506  -71.4976 H         1 UNK         0.1032 
     83 H83       -71.2608   30.3998  -71.9354 H         1 UNK         0.0461 
     84 H84       -70.5914   29.2064  -68.4969 H         1 UNK         0.3453 
     85 H85       -71.8468   30.1698  -69.2248 H         1 UNK         0.3453 
     86 H86       -70.8058   29.1649  -73.6972 H         1 UNK         0.2984 
     87 H87       -69.8966   27.1229  -74.6469 H         1 UNK         0.0554 
     88 H88       -70.2815   24.8285  -73.8032 H         1 UNK         0.0847 
     89 H89       -70.5321   24.8871  -75.5409 H         1 UNK         0.0847 
     90 H90       -71.9141   24.8255  -74.4489 H         1 UNK         0.0847 
     91 H91       -72.5432   26.7445  -75.8878 H         1 UNK         0.3141 
     92 H92       -73.3772   29.5100  -76.6720 H         1 UNK         0.0743 
     93 H93       -71.2632   29.3715  -78.8789 H         1 UNK         0.0784 
     94 H94       -72.8508   30.1210  -79.0540 H         1 UNK         0.0784 
     95 H95       -71.6903   30.7679  -77.9068 H         1 UNK         0.0784 
     96 H96       -74.3341   27.6928  -77.3795 H         1 UNK         0.3213 
     97 H97       -74.1715   25.8308  -80.1350 H         1 UNK         0.0855 
     98 H98       -73.2201   24.2519  -77.6827 H         1 UNK         0.0814 
     99 H99       -72.5274   24.1845  -79.2953 H         1 UNK         0.0814 
    100 H100      -74.1514   23.5769  -79.0192 H         1 UNK         0.0814 
    101 H101      -75.5012   25.2787  -77.6160 H         1 UNK         0.3105 
    102 H102      -77.6582   27.9962  -77.6046 H         1 UNK         0.0547 
    103 H103      -78.9543   26.7002  -79.2820 H         1 UNK         0.0837 
    104 H104      -78.5337   25.1945  -78.4801 H         1 UNK         0.0837 
    105 H105      -79.5591   26.3751  -77.6653 H         1 UNK         0.0837 
    106 H106      -77.8376   25.6601  -76.0662 H         1 UNK         0.3020 
    107 H107      -75.1171   26.1963  -73.8299 H         1 UNK         0.1245 
    108 H108      -78.1447   26.3405  -73.3661 H         1 UNK         0.0781 
    109 H109      -77.0667   27.7041  -73.1944 H         1 UNK         0.0781 
    110 H110      -77.2663   27.1862  -69.3733 H         1 UNK         0.0836 
    111 H111      -78.6956   26.7697  -70.2864 H         1 UNK         0.0836 
    112 H112      -77.2786   24.2631  -74.2197 H         1 UNK         0.3022 
    113 H113      -75.2142   21.8612  -75.8405 H         1 UNK         0.0747 
    114 H114      -75.8933   20.4605  -73.9059 H         1 UNK         0.0793 
    115 H115      -74.6336   21.5860  -73.4278 H         1 UNK         0.0793 
    116 H116      -76.3018   21.9003  -72.9711 H         1 UNK         0.0793 
    117 H117      -77.9229   21.8188  -74.8632 H         1 UNK         0.3047 
    118 H118      -79.4201   23.0659  -77.8509 H         1 UNK         0.0822 
    119 H119      -80.5560   20.8846  -77.8243 H         1 UNK         0.0807 
    120 H120      -79.3797   20.2375  -76.6800 H         1 UNK         0.0807 
    121 H121      -78.8866   20.6605  -78.3138 H         1 UNK         0.0807 
    122 H122      -80.8702   22.1518  -75.7598 H         1 UNK         0.2946 
    123 H123      -82.1276   23.7937  -74.6989 H         1 UNK         0.1144 
    124 H124      -81.7791   23.7115  -72.2170 H         1 UNK         0.0793 
    125 H125      -80.0439   23.9418  -72.4360 H         1 UNK         0.0793 
    126 H126      -80.8210   22.4703  -73.0039 H         1 UNK         0.0793 
    127 H127      -81.2329   25.9994  -73.1386 H         1 UNK         0.2896 
@<TRIPOS>BOND
     1    1    2 1    
     2    1   67 1    
     3    1   68 1    
     4    1   69 1    
     5    2    3 2    
     6    2    4 am   BACKBONE|DICT|INTERRES
     7    4    5 1    
     8    4   70 1    
     9    5    6 1    
    10    5   65 1    
    11    5   71 1    
    12    6    7 1    
    13    6   72 1    
    14    6   73 1    
    15    7    8 1    
    16    8    9 1    
    17    8   74 1    
    18    8   75 1    
    19    9   10 ar   
    20    9   14 ar   
    21   10   11 ar   
    22   10   76 1    
    23   11   12 ar   
    24   11   48 1    
    25   12   13 ar   
    26   12   77 1    
    27   13   14 ar   
    28   13   15 1    
    29   14   78 1    
    30   15   16 1    
    31   15   79 1    
    32   15   80 1    
    33   16   17 1    
    34   17   18 1    
    35   17   81 1    
    36   17   82 1    
    37   18   19 1    
    38   18   22 1    
    39   18   83 1    
    40   19   20 am   BACKBONE|DICT|INTERRES
    41   19   21 2    
    42   20   84 1    
    43   20   85 1    
    44   22   23 am   BACKBONE|DICT|INTERRES
    45   22   86 1    
    46   23   24 2    
    47   23   25 1    
    48   25   26 1    
    49   25   27 1    
    50   25   87 1    
    51   26   88 1    
    52   26   89 1    
    53   26   90 1    
    54   27   28 am   BACKBONE|DICT|INTERRES
    55   27   91 1    
    56   28   29 2    
    57   28   30 1    
    58   30   31 1    
    59   30   32 1    
    60   30   92 1    
    61   31   93 1    
    62   31   94 1    
    63   31   95 1    
    64   32   33 am   BACKBONE|DICT|INTERRES
    65   32   96 1    
    66   33   34 2    
    67   33   35 1    
    68   35   36 1    
    69   35   37 1    
    70   35   97 1    
    71   36   98 1    
    72   36   99 1    
    73   36  100 1    
    74   37   38 am   BACKBONE|DICT|INTERRES
    75   37  101 1    
    76   38   39 2    
    77   38   40 1    
    78   40   41 1    
    79   40   42 1    
    80   40  102 1    
    81   41  103 1    
    82   41  104 1    
    83   41  105 1    
    84   42   43 am   BACKBONE|DICT|INTERRES
    85   42  106 1    
    86   43   44 2    
    87   43   45 1    
    88   45   46 1    
    89   45   49 1    
    90   45  107 1    
    91   46   47 1    
    92   46  108 1    
    93   46  109 1    
    94   47   48 1    
    95   48  110 1    
    96   48  111 1    
    97   49   50 am   BACKBONE|DICT|INTERRES
    98   49  112 1    
    99   50   51 2    
   100   50   52 1    
   101   52   53 1    
   102   52   54 1    
   103   52  113 1    
   104   53  114 1    
   105   53  115 1    
   106   53  116 1    
   107   54   55 am   BACKBONE|DICT|INTERRES
   108   54  117 1    
   109   55   56 2    
   110   55   57 1    
   111   57   58 1    
   112   57   59 1    
   113   57  118 1    
   114   58  119 1    
   115   58  120 1    
   116   58  121 1    
   117   59   60 am   BACKBONE|DICT|INTERRES
   118   59  122 1    
   119   60   61 2    
   120   60   62 1    
   121   62   63 1    
   122   62   64 1    
   123   62  123 1    
   124   63  124 1    
   125   63  125 1    
   126   63  126 1    
   127   64   65 am   BACKBONE|DICT|INTERRES
   128   64  127 1    
   129   65   66 2    
@<TRIPOS>SUBSTRUCTURE
     1 UNK         1 GROUP             0       ****    0 ROOT    
