@<TRIPOS>MOLECULE
3R135
127   129    1
SMALL
USER_CHARGES


@<TRIPOS>ATOM
      1 CA        -85.2786   28.0267  -74.1364 C.3       0 UNK        -0.1998 
      2 C         -83.9928   28.6748  -74.6269 C.2       0 UNK         0.4909 
      3 O         -84.0394   29.5484  -75.4935 O.2       0 UNK        -0.5240 
      4 N         -82.8457   28.2561  -74.0763 N.am      1 UNK        -0.4739 
      5 CA        -81.5102   28.7591  -74.4300 C.3       1 UNK         0.0864 
      6 C6        -80.4398   28.3287  -73.3964 C.3       11 UNK        -0.0881 
      7 S7        -80.8241   28.8913  -71.7033 S.3       11 UNK        -0.2682 
      8 C8        -79.2903   29.7617  -71.2367 C.3       11 UNK         0.0289 
      9 C9        -78.0655   28.8516  -71.2278 C.ar      11 UNK        -0.0687 
     10 C10       -78.0743   27.6505  -70.5091 C.ar      11 UNK        -0.0823 
     11 C11       -76.9516   26.8170  -70.4982 C.ar      11 UNK        -0.0830 
     12 C12       -75.8055   27.2044  -71.1951 C.ar      11 UNK        -0.1021 
     13 C13       -75.7848   28.3963  -71.9229 C.ar      11 UNK        -0.0753 
     14 C14       -76.9151   29.2185  -71.9345 C.ar      11 UNK        -0.0933 
     15 C15       -74.5519   28.7602  -72.7310 C.3       11 UNK         0.0166 
     16 S16       -73.2574   29.5128  -71.6962 S.3       11 UNK        -0.2615 
     17 C17       -73.4275   31.2815  -72.1299 C.3       11 UNK        -0.0865 
     18 CA        -72.4649   31.7289  -73.2650 C.3       10 UNK         0.0862 
     19 C         -70.9919   31.8719  -72.7753 C.2       10 UNK         0.5551 
     20 N         -70.0247   31.1450  -73.3247 N.am      10 UNK        -0.7319 
     21 O         -70.7208   32.6746  -71.8855 O.2       10 UNK        -0.5018 
     22 N         -72.6365   30.8888  -74.4570 N.am      10 UNK        -0.4509 
     23 C         -72.3216   31.2238  -75.7113 C.2       10 UNK         0.4899 
     24 O         -71.9383   32.3459  -76.0453 O.2       10 UNK        -0.4839 
     25 CA        -72.4667   30.1052  -76.7639 C.3       9 UNK         0.0222 
     26 CB        -71.5755   30.3394  -78.0018 C.3       9 UNK        -0.1966 
     27 N         -72.2615   28.7477  -76.2319 N.am      9 UNK        -0.4218 
     28 C         -71.1526   28.2649  -75.6416 C.2       9 UNK         0.5020 
     29 O         -70.1686   28.9588  -75.3804 O.2       9 UNK        -0.5274 
     30 CA        -71.1212   26.7700  -75.2552 C.3       8 UNK         0.0270 
     31 CB        -71.1054   26.6005  -73.7268 C.3       8 UNK        -0.1976 
     32 N         -72.2244   25.9847  -75.8172 N.am      8 UNK        -0.4313 
     33 C         -72.3504   25.6697  -77.1166 C.2       8 UNK         0.5041 
     34 O         -71.4818   25.9047  -77.9573 O.2       8 UNK        -0.5577 
     35 CA        -73.6720   25.0202  -77.5771 C.3       7 UNK         0.0284 
     36 CB        -73.4734   23.5163  -77.8245 C.3       7 UNK        -0.1958 
     37 N         -74.7960   25.2057  -76.6542 N.am      7 UNK        -0.4454 
     38 C         -75.2986   26.3822  -76.2481 C.2       7 UNK         0.5089 
     39 O         -74.9006   27.4730  -76.6585 O.2       7 UNK        -0.5125 
     40 CA        -76.3757   26.3404  -75.1484 C.3       6 UNK         0.0408 
     41 CB        -77.7647   26.5629  -75.7586 C.3       6 UNK        -0.1791 
     42 N         -76.3705   25.1056  -74.3511 N.am      6 UNK        -0.4762 
     43 C         -75.3352   24.6783  -73.6063 C.2       6 UNK         0.5007 
     44 O         -74.2591   25.2756  -73.5426 O.2       6 UNK        -0.5032 
     45 CA        -75.4795   23.3391  -72.8534 C.3       5 UNK         0.0783 
     46 C46       -75.6691   23.5385  -71.3276 C.3       11 UNK        -0.0857 
     47 S47       -77.3420   24.0900  -70.8290 S.3       11 UNK        -0.2512 
     48 C48       -76.9802   25.5021  -69.7335 C.3       11 UNK         0.0225 
     49 N         -76.4876   22.4391  -73.4207 N.am      5 UNK        -0.4615 
     50 C         -76.4395   21.8844  -74.6382 C.2       4 UNK         0.5053 
     51 O         -75.5262   22.0831  -75.4411 O.2       4 UNK        -0.5105 
     52 CA        -77.6118   20.9694  -75.0470 C.3       4 UNK         0.0263 
     53 CB        -78.6166   20.6748  -73.9082 C.3       4 UNK        -0.1981 
     54 N         -78.3164   21.4828  -76.2279 N.am      4 UNK        -0.4224 
     55 C         -78.8816   22.6922  -76.3619 C.2       3 UNK         0.4895 
     56 O         -78.8592   23.5547  -75.4801 O.2       3 UNK        -0.5091 
     57 CA        -79.5513   22.9690  -77.7256 C.3       3 UNK         0.0250 
     58 CB        -80.6968   21.9738  -78.0160 C.3       3 UNK        -0.1996 
     59 N         -80.0066   24.3585  -77.8897 N.am      3 UNK        -0.4254 
     60 C         -80.9775   24.9932  -77.2154 C.2       2 UNK         0.5004 
     61 O         -81.7331   24.4633  -76.3952 O.2       2 UNK        -0.5226 
     62 CA        -81.1447   26.4858  -77.5228 C.3       2 UNK         0.0269 
     63 CB        -82.2154   26.7138  -78.6030 C.3       2 UNK        -0.1926 
     64 N         -81.5449   27.1543  -76.2895 N.am      2 UNK        -0.4687 
     65 C         -81.0703   28.3230  -75.8438 C.2       1 UNK         0.5165 
     66 O         -80.3005   29.0380  -76.4867 O.2       1 UNK        -0.5079 
     67 H67       -85.7908   27.5367  -74.9640 H         1 UNK         0.0900 
     68 H68       -85.0907   27.2807  -73.3644 H         1 UNK         0.0900 
     69 H69       -85.9452   28.7825  -73.7221 H         1 UNK         0.0900 
     70 H70       -82.8684   27.5582  -73.3462 H         1 UNK         0.2959 
     71 H71       -81.5568   29.8506  -74.4368 H         1 UNK         0.1079 
     72 H72       -79.4607   28.7148  -73.6878 H         1 UNK         0.0837 
     73 H73       -80.3388   27.2418  -73.3725 H         1 UNK         0.0837 
     74 H74       -79.4175   30.1866  -70.2403 H         1 UNK         0.0685 
     75 H75       -79.1462   30.6042  -71.9150 H         1 UNK         0.0685 
     76 H76       -78.9638   27.3603  -69.9666 H         1 UNK         0.1434 
     77 H77       -74.9301   26.5704  -71.1907 H         1 UNK         0.1329 
     78 H78       -76.8998   30.1409  -72.4987 H         1 UNK         0.1335 
     79 H79       -74.8237   29.4167  -73.5584 H         1 UNK         0.0680 
     80 H80       -74.1479   27.8607  -73.1928 H         1 UNK         0.0680 
     81 H81       -73.2655   31.8770  -71.2294 H         1 UNK         0.1032 
     82 H82       -74.4596   31.4835  -72.4196 H         1 UNK         0.1032 
     83 H83       -72.7664   32.7398  -73.5461 H         1 UNK         0.0461 
     84 H84       -69.0795   31.2592  -72.9961 H         1 UNK         0.3453 
     85 H85       -70.2218   30.4758  -74.0611 H         1 UNK         0.3453 
     86 H86       -72.8988   29.9327  -74.2739 H         1 UNK         0.2984 
     87 H87       -73.5052   30.1404  -77.0960 H         1 UNK         0.0554 
     88 H88       -71.8215   31.2825  -78.4914 H         1 UNK         0.0847 
     89 H89       -71.7079   29.5490  -78.7408 H         1 UNK         0.0847 
     90 H90       -70.5183   30.3768  -77.7368 H         1 UNK         0.0847 
     91 H91       -73.0445   28.1153  -76.3752 H         1 UNK         0.3141 
     92 H92       -70.1864   26.3631  -75.6463 H         1 UNK         0.0743 
     93 H93       -70.2662   27.1364  -73.2810 H         1 UNK         0.0784 
     94 H94       -72.0147   26.9826  -73.2651 H         1 UNK         0.0784 
     95 H95       -71.0049   25.5522  -73.4451 H         1 UNK         0.0784 
     96 H96       -72.9728   25.7339  -75.1786 H         1 UNK         0.3213 
     97 H97       -73.9472   25.4917  -78.5228 H         1 UNK         0.0855 
     98 H98       -73.2138   22.9884  -76.9058 H         1 UNK         0.0814 
     99 H99       -72.6699   23.3397  -78.5410 H         1 UNK         0.0814 
    100 H100      -74.3748   23.0567  -78.2303 H         1 UNK         0.0814 
    101 H101      -75.1768   24.3654  -76.2373 H         1 UNK         0.3105 
    102 H102      -76.1786   27.1658  -74.4649 H         1 UNK         0.0547 
    103 H103      -78.5494   26.4907  -75.0062 H         1 UNK         0.0837 
    104 H104      -77.9775   25.8331  -76.5384 H         1 UNK         0.0837 
    105 H105      -77.8358   27.5524  -76.2122 H         1 UNK         0.0837 
    106 H106      -77.2082   24.5346  -74.3934 H         1 UNK         0.3020 
    107 H107      -74.5174   22.8386  -72.9873 H         1 UNK         0.1245 
    108 H108      -74.9116   24.2195  -70.9364 H         1 UNK         0.0781 
    109 H109      -75.4833   22.5901  -70.8211 H         1 UNK         0.0781 
    110 H110      -76.0374   25.3469  -69.2070 H         1 UNK         0.0836 
    111 H111      -77.7479   25.5410  -68.9592 H         1 UNK         0.0836 
    112 H112      -77.2943   22.2629  -72.8393 H         1 UNK         0.3022 
    113 H113      -77.1620   20.0203  -75.3421 H         1 UNK         0.0747 
    114 H114      -79.3797   19.9693  -74.2373 H         1 UNK         0.0793 
    115 H115      -78.1206   20.2240  -73.0476 H         1 UNK         0.0793 
    116 H116      -79.1313   21.5738  -73.5663 H         1 UNK         0.0793 
    117 H117      -78.3393   20.8571  -77.0209 H         1 UNK         0.3047 
    118 H118      -78.7805   22.8221  -78.4839 H         1 UNK         0.0822 
    119 H119      -81.1961   22.2076  -78.9564 H         1 UNK         0.0807 
    120 H120      -81.4503   21.9788  -77.2278 H         1 UNK         0.0807 
    121 H121      -80.3260   20.9518  -78.0984 H         1 UNK         0.0807 
    122 H122      -79.4612   24.9019  -78.5441 H         1 UNK         0.2946 
    123 H123      -80.1884   26.8842  -77.8702 H         1 UNK         0.1144 
    124 H124      -83.1857   26.3199  -78.2975 H         1 UNK         0.0793 
    125 H125      -81.9408   26.2216  -79.5368 H         1 UNK         0.0793 
    126 H126      -82.3388   27.7752  -78.8188 H         1 UNK         0.0793 
    127 H127      -82.1324   26.5991  -75.6804 H         1 UNK         0.2896 
@<TRIPOS>BOND
     1    1    2 1    
     2    1   67 1    
     3    1   68 1    
     4    1   69 1    
     5    2    3 2    
     6    2    4 am   BACKBONE|DICT|INTERRES
     7    4    5 1    
     8    4   70 1    
     9    5    6 1    
    10    5   65 1    
    11    5   71 1    
    12    6    7 1    
    13    6   72 1    
    14    6   73 1    
    15    7    8 1    
    16    8    9 1    
    17    8   74 1    
    18    8   75 1    
    19    9   10 ar   
    20    9   14 ar   
    21   10   11 ar   
    22   10   76 1    
    23   11   12 ar   
    24   11   48 1    
    25   12   13 ar   
    26   12   77 1    
    27   13   14 ar   
    28   13   15 1    
    29   14   78 1    
    30   15   16 1    
    31   15   79 1    
    32   15   80 1    
    33   16   17 1    
    34   17   18 1    
    35   17   81 1    
    36   17   82 1    
    37   18   19 1    
    38   18   22 1    
    39   18   83 1    
    40   19   20 am   BACKBONE|DICT|INTERRES
    41   19   21 2    
    42   20   84 1    
    43   20   85 1    
    44   22   23 am   BACKBONE|DICT|INTERRES
    45   22   86 1    
    46   23   24 2    
    47   23   25 1    
    48   25   26 1    
    49   25   27 1    
    50   25   87 1    
    51   26   88 1    
    52   26   89 1    
    53   26   90 1    
    54   27   28 am   BACKBONE|DICT|INTERRES
    55   27   91 1    
    56   28   29 2    
    57   28   30 1    
    58   30   31 1    
    59   30   32 1    
    60   30   92 1    
    61   31   93 1    
    62   31   94 1    
    63   31   95 1    
    64   32   33 am   BACKBONE|DICT|INTERRES
    65   32   96 1    
    66   33   34 2    
    67   33   35 1    
    68   35   36 1    
    69   35   37 1    
    70   35   97 1    
    71   36   98 1    
    72   36   99 1    
    73   36  100 1    
    74   37   38 am   BACKBONE|DICT|INTERRES
    75   37  101 1    
    76   38   39 2    
    77   38   40 1    
    78   40   41 1    
    79   40   42 1    
    80   40  102 1    
    81   41  103 1    
    82   41  104 1    
    83   41  105 1    
    84   42   43 am   BACKBONE|DICT|INTERRES
    85   42  106 1    
    86   43   44 2    
    87   43   45 1    
    88   45   46 1    
    89   45   49 1    
    90   45  107 1    
    91   46   47 1    
    92   46  108 1    
    93   46  109 1    
    94   47   48 1    
    95   48  110 1    
    96   48  111 1    
    97   49   50 am   BACKBONE|DICT|INTERRES
    98   49  112 1    
    99   50   51 2    
   100   50   52 1    
   101   52   53 1    
   102   52   54 1    
   103   52  113 1    
   104   53  114 1    
   105   53  115 1    
   106   53  116 1    
   107   54   55 am   BACKBONE|DICT|INTERRES
   108   54  117 1    
   109   55   56 2    
   110   55   57 1    
   111   57   58 1    
   112   57   59 1    
   113   57  118 1    
   114   58  119 1    
   115   58  120 1    
   116   58  121 1    
   117   59   60 am   BACKBONE|DICT|INTERRES
   118   59  122 1    
   119   60   61 2    
   120   60   62 1    
   121   62   63 1    
   122   62   64 1    
   123   62  123 1    
   124   63  124 1    
   125   63  125 1    
   126   63  126 1    
   127   64   65 am   BACKBONE|DICT|INTERRES
   128   64  127 1    
   129   65   66 2    
@<TRIPOS>SUBSTRUCTURE
     1 UNK         1 GROUP             0       ****    0 ROOT    
