@<TRIPOS>MOLECULE
3R134
127   129    1
SMALL
USER_CHARGES


@<TRIPOS>ATOM
      1 CA         37.8019  -42.9037  -52.4314 C.3       0 UNK        -0.1968 
      2 C          37.9000  -44.3380  -52.9307 C.2       0 UNK         0.4852 
      3 O          38.9671  -44.9471  -52.8349 O.2       0 UNK        -0.5359 
      4 N          36.7982  -44.8764  -53.4679 N.am      1 UNK        -0.4300 
      5 CA         36.6797  -46.2638  -53.9237 C.3       1 UNK         0.0863 
      6 C6         35.5846  -46.4092  -55.0146 C.3       11 UNK        -0.0953 
      7 S7         33.8730  -46.1504  -54.4313 S.3       11 UNK        -0.2369 
      8 C8         33.5219  -44.4633  -55.0218 C.3       11 UNK         0.0226 
      9 C9         32.0809  -44.0499  -54.7469 C.ar      11 UNK        -0.0699 
     10 C10        31.5279  -44.2039  -53.4721 C.ar      11 UNK        -0.0804 
     11 C11        30.1984  -43.8541  -53.2240 C.ar      11 UNK        -0.0871 
     12 C12        29.4295  -43.2947  -54.2474 C.ar      11 UNK        -0.1008 
     13 C13        29.9752  -43.1175  -55.5217 C.ar      11 UNK        -0.0735 
     14 C14        31.2969  -43.5045  -55.7681 C.ar      11 UNK        -0.0945 
     15 C15        29.1364  -42.5168  -56.6372 C.3       11 UNK         0.0169 
     16 S16        27.9803  -43.7446  -57.3139 S.3       11 UNK        -0.2669 
     17 C17        26.4241  -43.3442  -56.4381 C.3       11 UNK        -0.0850 
     18 CA         25.1593  -43.7199  -57.2550 C.3       10 UNK         0.0855 
     19 C          25.0417  -42.8756  -58.5623 C.2       10 UNK         0.5543 
     20 N          25.2426  -43.4467  -59.7455 N.am      10 UNK        -0.7343 
     21 O          24.7564  -41.6824  -58.4948 O.2       10 UNK        -0.5027 
     22 N          25.0695  -45.1756  -57.4315 N.am      10 UNK        -0.4495 
     23 C          24.0361  -45.8413  -57.9603 C.2       10 UNK         0.4903 
     24 O          22.9558  -45.3178  -58.2381 O.2       10 UNK        -0.4860 
     25 CA         24.2517  -47.3441  -58.2293 C.3       9 UNK         0.0227 
     26 CB         23.3736  -47.8707  -59.3831 C.3       9 UNK        -0.1964 
     27 N          25.6572  -47.7133  -58.4470 N.am      9 UNK        -0.4231 
     28 C          26.5043  -47.2643  -59.3874 C.2       9 UNK         0.5014 
     29 O          26.2036  -46.4180  -60.2316 O.2       9 UNK        -0.5270 
     30 CA         27.9371  -47.8395  -59.3763 C.3       8 UNK         0.0284 
     31 CB         28.9606  -46.7641  -58.9812 C.3       8 UNK        -0.1977 
     32 N          28.0948  -48.9802  -58.4706 N.am      8 UNK        -0.4342 
     33 C          27.6850  -50.2290  -58.7287 C.2       8 UNK         0.5039 
     34 O          27.2234  -50.5928  -59.8105 O.2       8 UNK        -0.5547 
     35 CA         27.7496  -51.2210  -57.5567 C.3       7 UNK         0.0281 
     36 CB         29.1689  -51.7867  -57.3856 C.3       7 UNK        -0.1963 
     37 N          27.2982  -50.6085  -56.3025 N.am      7 UNK        -0.4444 
     38 C          26.0229  -50.2974  -56.0288 C.2       7 UNK         0.5104 
     39 O          25.0860  -50.5284  -56.7916 O.2       7 UNK        -0.5100 
     40 CA         25.7368  -49.5917  -54.6935 C.3       6 UNK         0.0396 
     41 CB         25.3554  -50.6195  -53.6168 C.3       6 UNK        -0.1801 
     42 N          26.8613  -48.7858  -54.2151 N.am      6 UNK        -0.4747 
     43 C          27.1940  -47.5750  -54.6876 C.2       6 UNK         0.5012 
     44 O          26.6007  -47.0033  -55.6019 O.2       6 UNK        -0.5003 
     45 CA         28.4244  -46.9167  -54.0319 C.3       5 UNK         0.0782 
     46 C46        28.0290  -46.3488  -52.6371 C.3       11 UNK        -0.0868 
     47 S47        29.4270  -45.8983  -51.5484 S.3       11 UNK        -0.2515 
     48 C48        29.5959  -44.1120  -51.8541 C.3       11 UNK         0.0199 
     49 N          29.5802  -47.8206  -53.9712 N.am      5 UNK        -0.4607 
     50 C          30.1257  -48.5060  -54.9865 C.2       4 UNK         0.5031 
     51 O          29.6511  -48.5263  -56.1228 O.2       4 UNK        -0.5119 
     52 CA         31.4053  -49.3181  -54.6994 C.3       4 UNK         0.0263 
     53 CB         32.3918  -49.2517  -55.8799 C.3       4 UNK        -0.1967 
     54 N          32.1005  -48.9102  -53.4734 N.am      4 UNK        -0.4237 
     55 C          31.7853  -49.3141  -52.2353 C.2       3 UNK         0.4908 
     56 O          30.8297  -50.0515  -51.9880 O.2       3 UNK        -0.5102 
     57 CA         32.6762  -48.7862  -51.0922 C.3       3 UNK         0.0241 
     58 CB         32.4028  -49.4913  -49.7467 C.3       3 UNK        -0.1971 
     59 N          34.1116  -48.8196  -51.4052 N.am      3 UNK        -0.4139 
     60 C          34.8555  -49.8781  -51.7623 C.2       2 UNK         0.5016 
     61 O          34.4067  -51.0173  -51.9027 O.2       2 UNK        -0.5319 
     62 CA         36.3567  -49.6080  -52.0129 C.3       2 UNK         0.0286 
     63 CB         37.1148  -50.8643  -52.4829 C.3       2 UNK        -0.1963 
     64 N          36.5860  -48.5312  -52.9841 N.am      2 UNK        -0.4790 
     65 C          36.4609  -47.2218  -52.7315 C.2       1 UNK         0.5024 
     66 O          36.1317  -46.7809  -51.6259 O.2       1 UNK        -0.4888 
     67 H67        38.5262  -42.2755  -52.9492 H         1 UNK         0.0892 
     68 H68        36.8103  -42.4816  -52.5938 H         1 UNK         0.0892 
     69 H69        38.0165  -42.8633  -51.3638 H         1 UNK         0.0892 
     70 H70        35.9389  -44.3479  -53.4701 H         1 UNK         0.3107 
     71 H71        37.6303  -46.5453  -54.3824 H         1 UNK         0.0773 
     72 H72        35.6298  -47.4063  -55.4558 H         1 UNK         0.0680 
     73 H73        35.7929  -45.7259  -55.8393 H         1 UNK         0.0680 
     74 H74        34.1928  -43.7566  -54.5332 H         1 UNK         0.0650 
     75 H75        33.7350  -44.4149  -56.0908 H         1 UNK         0.0650 
     76 H76        32.1230  -44.6303  -52.6760 H         1 UNK         0.1397 
     77 H77        28.4021  -43.0139  -54.0610 H         1 UNK         0.1363 
     78 H78        31.7153  -43.3788  -56.7574 H         1 UNK         0.1355 
     79 H79        28.6054  -41.6352  -56.2764 H         1 UNK         0.0707 
     80 H80        29.7799  -42.1683  -57.4464 H         1 UNK         0.0707 
     81 H81        26.4202  -43.8721  -55.4832 H         1 UNK         0.1034 
     82 H82        26.3995  -42.2817  -56.1904 H         1 UNK         0.1034 
     83 H83        24.2955  -43.4413  -56.6487 H         1 UNK         0.0482 
     84 H84        25.4992  -44.4249  -59.8061 H         1 UNK         0.3460 
     85 H85        25.1618  -42.8936  -60.5833 H         1 UNK         0.3460 
     86 H86        25.8953  -45.7039  -57.1758 H         1 UNK         0.2989 
     87 H87        23.9449  -47.8586  -57.3177 H         1 UNK         0.0559 
     88 H88        22.3139  -47.7258  -59.1697 H         1 UNK         0.0848 
     89 H89        23.5267  -48.9384  -59.5405 H         1 UNK         0.0848 
     90 H90        23.5901  -47.3580  -60.3210 H         1 UNK         0.0848 
     91 H91        26.0301  -48.3772  -57.7837 H         1 UNK         0.3144 
     92 H92        28.1603  -48.1649  -60.3944 H         1 UNK         0.0727 
     93 H93        28.8403  -46.4646  -57.9396 H         1 UNK         0.0790 
     94 H94        28.8562  -45.8696  -59.5968 H         1 UNK         0.0790 
     95 H95        29.9814  -47.1262  -59.1039 H         1 UNK         0.0790 
     96 H96        28.5322  -48.7870  -57.5695 H         1 UNK         0.3215 
     97 H97        27.0808  -52.0532  -57.7885 H         1 UNK         0.0863 
     98 H98        29.2085  -52.5251  -56.5847 H         1 UNK         0.0808 
     99 H99        29.8955  -51.0067  -57.1597 H         1 UNK         0.0808 
    100 H100       29.5004  -52.2826  -58.2989 H         1 UNK         0.0808 
    101 H101       28.0103  -50.3373  -55.6405 H         1 UNK         0.3118 
    102 H102       24.8809  -48.9305  -54.8472 H         1 UNK         0.0546 
    103 H103       26.1740  -51.3084  -53.4045 H         1 UNK         0.0828 
    104 H104       24.5006  -51.2182  -53.9350 H         1 UNK         0.0828 
    105 H105       25.0758  -50.1312  -52.6831 H         1 UNK         0.0828 
    106 H106       27.4200  -49.1770  -53.4694 H         1 UNK         0.3005 
    107 H107       28.7211  -46.0834  -54.6730 H         1 UNK         0.1257 
    108 H108       27.3738  -45.4842  -52.7587 H         1 UNK         0.0775 
    109 H109       27.4452  -47.0802  -52.0745 H         1 UNK         0.0775 
    110 H110       28.6267  -43.6227  -51.7450 H         1 UNK         0.0840 
    111 H111       30.2446  -43.6813  -51.0900 H         1 UNK         0.0840 
    112 H112       30.0333  -47.8723  -53.0708 H         1 UNK         0.2987 
    113 H113       31.0957  -50.3595  -54.5889 H         1 UNK         0.0785 
    114 H114       31.9591  -49.6910  -56.7793 H         1 UNK         0.0798 
    115 H115       33.3094  -49.7999  -55.6655 H         1 UNK         0.0798 
    116 H116       32.6610  -48.2242  -56.1246 H         1 UNK         0.0798 
    117 H117       32.8699  -48.2642  -53.5909 H         1 UNK         0.3079 
    118 H118       32.4146  -47.7338  -50.9701 H         1 UNK         0.0794 
    119 H119       33.0174  -49.0749  -48.9486 H         1 UNK         0.0786 
    120 H120       32.6059  -50.5613  -49.8032 H         1 UNK         0.0786 
    121 H121       31.3609  -49.3724  -49.4464 H         1 UNK         0.0786 
    122 H122       34.6015  -47.9309  -51.3403 H         1 UNK         0.3032 
    123 H123       36.7837  -49.3079  -51.0528 H         1 UNK         0.1094 
    124 H124       36.7359  -51.2315  -53.4376 H         1 UNK         0.0794 
    125 H125       38.1806  -50.6658  -52.5977 H         1 UNK         0.0794 
    126 H126       37.0166  -51.6748  -51.7592 H         1 UNK         0.0794 
    127 H127       36.8203  -48.8227  -53.9227 H         1 UNK         0.3016 
@<TRIPOS>BOND
     1    1    2 1    
     2    1   67 1    
     3    1   68 1    
     4    1   69 1    
     5    2    3 2    
     6    2    4 am   BACKBONE|DICT|INTERRES
     7    4    5 1    
     8    4   70 1    
     9    5    6 1    
    10    5   65 1    
    11    5   71 1    
    12    6    7 1    
    13    6   72 1    
    14    6   73 1    
    15    7    8 1    
    16    8    9 1    
    17    8   74 1    
    18    8   75 1    
    19    9   10 ar   
    20    9   14 ar   
    21   10   11 ar   
    22   10   76 1    
    23   11   12 ar   
    24   11   48 1    
    25   12   13 ar   
    26   12   77 1    
    27   13   14 ar   
    28   13   15 1    
    29   14   78 1    
    30   15   16 1    
    31   15   79 1    
    32   15   80 1    
    33   16   17 1    
    34   17   18 1    
    35   17   81 1    
    36   17   82 1    
    37   18   19 1    
    38   18   22 1    
    39   18   83 1    
    40   19   20 am   BACKBONE|DICT|INTERRES
    41   19   21 2    
    42   20   84 1    
    43   20   85 1    
    44   22   23 am   BACKBONE|DICT|INTERRES
    45   22   86 1    
    46   23   24 2    
    47   23   25 1    
    48   25   26 1    
    49   25   27 1    
    50   25   87 1    
    51   26   88 1    
    52   26   89 1    
    53   26   90 1    
    54   27   28 am   BACKBONE|DICT|INTERRES
    55   27   91 1    
    56   28   29 2    
    57   28   30 1    
    58   30   31 1    
    59   30   32 1    
    60   30   92 1    
    61   31   93 1    
    62   31   94 1    
    63   31   95 1    
    64   32   33 am   BACKBONE|DICT|INTERRES
    65   32   96 1    
    66   33   34 2    
    67   33   35 1    
    68   35   36 1    
    69   35   37 1    
    70   35   97 1    
    71   36   98 1    
    72   36   99 1    
    73   36  100 1    
    74   37   38 am   BACKBONE|DICT|INTERRES
    75   37  101 1    
    76   38   39 2    
    77   38   40 1    
    78   40   41 1    
    79   40   42 1    
    80   40  102 1    
    81   41  103 1    
    82   41  104 1    
    83   41  105 1    
    84   42   43 am   BACKBONE|DICT|INTERRES
    85   42  106 1    
    86   43   44 2    
    87   43   45 1    
    88   45   46 1    
    89   45   49 1    
    90   45  107 1    
    91   46   47 1    
    92   46  108 1    
    93   46  109 1    
    94   47   48 1    
    95   48  110 1    
    96   48  111 1    
    97   49   50 am   BACKBONE|DICT|INTERRES
    98   49  112 1    
    99   50   51 2    
   100   50   52 1    
   101   52   53 1    
   102   52   54 1    
   103   52  113 1    
   104   53  114 1    
   105   53  115 1    
   106   53  116 1    
   107   54   55 am   BACKBONE|DICT|INTERRES
   108   54  117 1    
   109   55   56 2    
   110   55   57 1    
   111   57   58 1    
   112   57   59 1    
   113   57  118 1    
   114   58  119 1    
   115   58  120 1    
   116   58  121 1    
   117   59   60 am   BACKBONE|DICT|INTERRES
   118   59  122 1    
   119   60   61 2    
   120   60   62 1    
   121   62   63 1    
   122   62   64 1    
   123   62  123 1    
   124   63  124 1    
   125   63  125 1    
   126   63  126 1    
   127   64   65 am   BACKBONE|DICT|INTERRES
   128   64  127 1    
   129   65   66 2    
@<TRIPOS>SUBSTRUCTURE
     1 UNK         1 GROUP             0       ****    0 ROOT    
