@<TRIPOS>MOLECULE
3R134
127   129    1
SMALL
USER_CHARGES


@<TRIPOS>ATOM
      1 CA         29.5523  -47.2019  -49.0088 C.3       0 UNK        -0.1968 
      2 C          30.8770  -46.4771  -49.1982 C.2       0 UNK         0.4852 
      3 O          31.7952  -46.6702  -48.4002 O.2       0 UNK        -0.5359 
      4 N          30.9759  -45.6378  -50.2392 N.am      1 UNK        -0.4300 
      5 CA         32.1670  -44.8489  -50.5760 C.3       1 UNK         0.0863 
      6 C6         31.8454  -43.7856  -51.6552 C.3       11 UNK        -0.0953 
      7 S7         33.0117  -42.3814  -51.6503 S.3       11 UNK        -0.2369 
      8 C8         34.0654  -42.7438  -53.1014 C.3       11 UNK         0.0226 
      9 C9         33.3229  -42.8419  -54.4351 C.ar      11 UNK        -0.0699 
     10 C10        33.8070  -43.7087  -55.4219 C.ar      11 UNK        -0.0804 
     11 C11        33.1363  -43.8458  -56.6412 C.ar      11 UNK        -0.0871 
     12 C12        31.9936  -43.0819  -56.8868 C.ar      11 UNK        -0.1008 
     13 C13        31.4823  -42.2324  -55.9046 C.ar      11 UNK        -0.0735 
     14 C14        32.1627  -42.0988  -54.6916 C.ar      11 UNK        -0.0945 
     15 C15        30.1697  -41.4981  -56.1342 C.3       11 UNK         0.0169 
     16 S16        28.7455  -42.6182  -55.9117 S.3       11 UNK        -0.2669 
     17 C17        28.6830  -43.4659  -57.5296 C.3       11 UNK        -0.0850 
     18 CA         27.2275  -43.7642  -57.9762 C.3       10 UNK         0.0855 
     19 C          27.1230  -44.0156  -59.5122 C.2       10 UNK         0.5543 
     20 N          26.4262  -45.0397  -59.9893 N.am      10 UNK        -0.7343 
     21 O          27.6760  -43.2502  -60.2980 O.2       10 UNK        -0.5027 
     22 N          26.6305  -44.8286  -57.1536 N.am      10 UNK        -0.4495 
     23 C          25.3314  -44.9231  -56.8486 C.2       10 UNK         0.4903 
     24 O          24.4932  -44.0658  -57.1336 O.2       10 UNK        -0.4860 
     25 CA         24.9044  -46.2219  -56.1370 C.3       9 UNK         0.0227 
     26 CB         23.3745  -46.3582  -55.9897 C.3       9 UNK        -0.1964 
     27 N          25.4707  -47.4172  -56.7745 N.am      9 UNK        -0.4231 
     28 C          25.3348  -47.8084  -58.0518 C.2       9 UNK         0.5014 
     29 O          24.6605  -47.2012  -58.8843 O.2       9 UNK        -0.5270 
     30 CA         26.1142  -49.0576  -58.5066 C.3       8 UNK         0.0284 
     31 CB         27.2556  -48.6521  -59.4548 C.3       8 UNK        -0.1977 
     32 N          26.6767  -49.8333  -57.3999 N.am      8 UNK        -0.4342 
     33 C          25.9718  -50.6067  -56.5635 C.2       8 UNK         0.5039 
     34 O          24.7668  -50.8293  -56.6832 O.2       8 UNK        -0.5547 
     35 CA         26.7362  -51.1875  -55.3626 C.3       7 UNK         0.0281 
     36 CB         27.4797  -52.4747  -55.7541 C.3       7 UNK        -0.1963 
     37 N          27.6771  -50.2208  -54.7862 N.am      7 UNK        -0.4444 
     38 C          27.3152  -49.1110  -54.1258 C.2       7 UNK         0.5104 
     39 O          26.1470  -48.7938  -53.9067 O.2       7 UNK        -0.5100 
     40 CA         28.4444  -48.1791  -53.6581 C.3       6 UNK         0.0396 
     41 CB         28.9718  -48.6238  -52.2862 C.3       6 UNK        -0.1801 
     42 N          29.5567  -48.1101  -54.6067 N.am      6 UNK        -0.4747 
     43 C          29.4894  -47.5466  -55.8233 C.2       6 UNK         0.5012 
     44 O          28.4838  -46.9954  -56.2759 O.2       6 UNK        -0.5003 
     45 CA         30.7629  -47.6439  -56.6857 C.3       5 UNK         0.0782 
     46 C46        31.7879  -46.5950  -56.1962 C.3       11 UNK        -0.0868 
     47 S47        33.3728  -46.5998  -57.1121 S.3       11 UNK        -0.2515 
     48 C48        33.5883  -44.8714  -57.6734 C.3       11 UNK         0.0199 
     49 N          31.3128  -49.0043  -56.7025 N.am      5 UNK        -0.4607 
     50 C          30.6696  -50.1088  -57.1023 C.2       4 UNK         0.5031 
     51 O          29.5108  -50.1060  -57.5146 O.2       4 UNK        -0.5119 
     52 CA         31.4062  -51.4550  -56.9760 C.3       4 UNK         0.0263 
     53 CB         32.3383  -51.7019  -58.1784 C.3       4 UNK        -0.1967 
     54 N          32.0905  -51.6299  -55.6854 N.am      4 UNK        -0.4237 
     55 C          33.1674  -50.9799  -55.2250 C.2       3 UNK         0.4908 
     56 O          33.8384  -50.1886  -55.8914 O.2       3 UNK        -0.5102 
     57 CA         33.5333  -51.2320  -53.7535 C.3       3 UNK         0.0241 
     58 CB         34.6059  -52.3275  -53.6430 C.3       3 UNK        -0.1971 
     59 N          34.0184  -50.0103  -53.1072 N.am      3 UNK        -0.4139 
     60 C          33.3012  -48.8894  -52.9502 C.2       2 UNK         0.5016 
     61 O          32.1096  -48.7741  -53.2611 O.2       2 UNK        -0.5319 
     62 CA         34.0558  -47.6877  -52.3734 C.3       2 UNK         0.0286 
     63 CB         34.9244  -47.0149  -53.4547 C.3       2 UNK        -0.1963 
     64 N          33.0853  -46.7366  -51.8439 N.am      2 UNK        -0.4790 
     65 C          33.3572  -45.7345  -51.0001 C.2       1 UNK         0.5024 
     66 O          34.4822  -45.5015  -50.5548 O.2       1 UNK        -0.4888 
     67 H67        28.7851  -46.8362  -49.6908 H         1 UNK         0.0892 
     68 H68        29.6816  -48.2704  -49.1786 H         1 UNK         0.0892 
     69 H69        29.1900  -47.0607  -47.9909 H         1 UNK         0.0892 
     70 H70        30.1800  -45.5106  -50.8474 H         1 UNK         0.3107 
     71 H71        32.4608  -44.3280  -49.6616 H         1 UNK         0.0773 
     72 H72        31.7782  -44.2332  -52.6486 H         1 UNK         0.0680 
     73 H73        30.8612  -43.3543  -51.4652 H         1 UNK         0.0680 
     74 H74        34.6056  -43.6712  -52.9050 H         1 UNK         0.0650 
     75 H75        34.8191  -41.9601  -53.1842 H         1 UNK         0.0650 
     76 H76        34.6891  -44.3048  -55.2318 H         1 UNK         0.1397 
     77 H77        31.4705  -43.1911  -57.8257 H         1 UNK         0.1363 
     78 H78        31.7673  -41.4339  -53.9367 H         1 UNK         0.1355 
     79 H79        30.1537  -41.0472  -57.1274 H         1 UNK         0.0707 
     80 H80        30.0733  -40.6722  -55.4277 H         1 UNK         0.0707 
     81 H81        29.1813  -42.8292  -58.2620 H         1 UNK         0.1034 
     82 H82        29.2674  -44.3861  -57.4784 H         1 UNK         0.1034 
     83 H83        26.6529  -42.8500  -57.8153 H         1 UNK         0.0482 
     84 H84        25.9011  -45.6545  -59.3796 H         1 UNK         0.3460 
     85 H85        26.3726  -45.1660  -60.9871 H         1 UNK         0.3460 
     86 H86        27.2507  -45.5869  -56.8830 H         1 UNK         0.2989 
     87 H87        25.3320  -46.1783  -55.1342 H         1 UNK         0.0559 
     88 H88        22.9602  -45.5224  -55.4247 H         1 UNK         0.0848 
     89 H89        23.1087  -47.2718  -55.4579 H         1 UNK         0.0848 
     90 H90        22.8739  -46.3760  -56.9584 H         1 UNK         0.0848 
     91 H91        26.0789  -47.9704  -56.1861 H         1 UNK         0.3144 
     92 H92        25.4192  -49.6956  -59.0563 H         1 UNK         0.0727 
     93 H93        27.9763  -47.9994  -58.9601 H         1 UNK         0.0790 
     94 H94        26.8731  -48.1165  -60.3247 H         1 UNK         0.0790 
     95 H95        27.7942  -49.5251  -59.8240 H         1 UNK         0.0790 
     96 H96        27.6868  -49.7788  -57.2789 H         1 UNK         0.3215 
     97 H97        26.0025  -51.4405  -54.5938 H         1 UNK         0.0863 
     98 H98        27.9998  -52.9101  -54.9008 H         1 UNK         0.0808 
     99 H99        28.2109  -52.2994  -56.5429 H         1 UNK         0.0808 
    100 H100       26.7810  -53.2265  -56.1239 H         1 UNK         0.0808 
    101 H101       28.6604  -50.3794  -54.9468 H         1 UNK         0.3118 
    102 H102       28.0277  -47.1748  -53.5549 H         1 UNK         0.0546 
    103 H103       29.4147  -49.6199  -52.3258 H         1 UNK         0.0828 
    104 H104       28.1693  -48.6511  -51.5480 H         1 UNK         0.0828 
    105 H105       29.7340  -47.9391  -51.9171 H         1 UNK         0.0828 
    106 H106       30.4459  -48.4949  -54.2951 H         1 UNK         0.3005 
    107 H107       30.4793  -47.3983  -57.7112 H         1 UNK         0.1257 
    108 H108       31.3240  -45.6115  -56.2462 H         1 UNK         0.0775 
    109 H109       32.0286  -46.7525  -55.1434 H         1 UNK         0.0775 
    110 H110       34.6396  -44.7050  -57.9120 H         1 UNK         0.0840 
    111 H111       33.0420  -44.7423  -58.6091 H         1 UNK         0.0840 
    112 H112       32.2739  -49.1060  -56.3893 H         1 UNK         0.2987 
    113 H113       30.6403  -52.2315  -57.0038 H         1 UNK         0.0785 
    114 H114       31.7716  -51.7050  -59.1103 H         1 UNK         0.0798 
    115 H115       32.8395  -52.6666  -58.1004 H         1 UNK         0.0798 
    116 H116       33.1043  -50.9319  -58.2732 H         1 UNK         0.0798 
    117 H117       31.6229  -52.2579  -55.0458 H         1 UNK         0.3079 
    118 H118       32.6399  -51.5573  -53.2160 H         1 UNK         0.0794 
    119 H119       34.8497  -52.5424  -52.6023 H         1 UNK         0.0786 
    120 H120       35.5274  -52.0424  -54.1528 H         1 UNK         0.0786 
    121 H121       34.2609  -53.2598  -54.0923 H         1 UNK         0.0786 
    122 H122       34.9963  -49.9971  -52.8574 H         1 UNK         0.3032 
    123 H123       34.6892  -48.0388  -51.5554 H         1 UNK         0.1094 
    124 H124       35.6139  -47.7262  -53.9109 H         1 UNK         0.0794 
    125 H125       34.3125  -46.5985  -54.2541 H         1 UNK         0.0794 
    126 H126       35.5262  -46.2060  -53.0408 H         1 UNK         0.0794 
    127 H127       32.1329  -46.9136  -52.1380 H         1 UNK         0.3016 
@<TRIPOS>BOND
     1    1    2 1    
     2    1   67 1    
     3    1   68 1    
     4    1   69 1    
     5    2    3 2    
     6    2    4 am   BACKBONE|DICT|INTERRES
     7    4    5 1    
     8    4   70 1    
     9    5    6 1    
    10    5   65 1    
    11    5   71 1    
    12    6    7 1    
    13    6   72 1    
    14    6   73 1    
    15    7    8 1    
    16    8    9 1    
    17    8   74 1    
    18    8   75 1    
    19    9   10 ar   
    20    9   14 ar   
    21   10   11 ar   
    22   10   76 1    
    23   11   12 ar   
    24   11   48 1    
    25   12   13 ar   
    26   12   77 1    
    27   13   14 ar   
    28   13   15 1    
    29   14   78 1    
    30   15   16 1    
    31   15   79 1    
    32   15   80 1    
    33   16   17 1    
    34   17   18 1    
    35   17   81 1    
    36   17   82 1    
    37   18   19 1    
    38   18   22 1    
    39   18   83 1    
    40   19   20 am   BACKBONE|DICT|INTERRES
    41   19   21 2    
    42   20   84 1    
    43   20   85 1    
    44   22   23 am   BACKBONE|DICT|INTERRES
    45   22   86 1    
    46   23   24 2    
    47   23   25 1    
    48   25   26 1    
    49   25   27 1    
    50   25   87 1    
    51   26   88 1    
    52   26   89 1    
    53   26   90 1    
    54   27   28 am   BACKBONE|DICT|INTERRES
    55   27   91 1    
    56   28   29 2    
    57   28   30 1    
    58   30   31 1    
    59   30   32 1    
    60   30   92 1    
    61   31   93 1    
    62   31   94 1    
    63   31   95 1    
    64   32   33 am   BACKBONE|DICT|INTERRES
    65   32   96 1    
    66   33   34 2    
    67   33   35 1    
    68   35   36 1    
    69   35   37 1    
    70   35   97 1    
    71   36   98 1    
    72   36   99 1    
    73   36  100 1    
    74   37   38 am   BACKBONE|DICT|INTERRES
    75   37  101 1    
    76   38   39 2    
    77   38   40 1    
    78   40   41 1    
    79   40   42 1    
    80   40  102 1    
    81   41  103 1    
    82   41  104 1    
    83   41  105 1    
    84   42   43 am   BACKBONE|DICT|INTERRES
    85   42  106 1    
    86   43   44 2    
    87   43   45 1    
    88   45   46 1    
    89   45   49 1    
    90   45  107 1    
    91   46   47 1    
    92   46  108 1    
    93   46  109 1    
    94   47   48 1    
    95   48  110 1    
    96   48  111 1    
    97   49   50 am   BACKBONE|DICT|INTERRES
    98   49  112 1    
    99   50   51 2    
   100   50   52 1    
   101   52   53 1    
   102   52   54 1    
   103   52  113 1    
   104   53  114 1    
   105   53  115 1    
   106   53  116 1    
   107   54   55 am   BACKBONE|DICT|INTERRES
   108   54  117 1    
   109   55   56 2    
   110   55   57 1    
   111   57   58 1    
   112   57   59 1    
   113   57  118 1    
   114   58  119 1    
   115   58  120 1    
   116   58  121 1    
   117   59   60 am   BACKBONE|DICT|INTERRES
   118   59  122 1    
   119   60   61 2    
   120   60   62 1    
   121   62   63 1    
   122   62   64 1    
   123   62  123 1    
   124   63  124 1    
   125   63  125 1    
   126   63  126 1    
   127   64   65 am   BACKBONE|DICT|INTERRES
   128   64  127 1    
   129   65   66 2    
@<TRIPOS>SUBSTRUCTURE
     1 UNK         1 GROUP             0       ****    0 ROOT    
