@<TRIPOS>MOLECULE
3R134
127   129    1
SMALL
USER_CHARGES


@<TRIPOS>ATOM
      1 CA         33.3693  -48.1241  -59.3939 C.3       0 UNK        -0.1968 
      2 C          33.1918  -48.4480  -57.9189 C.2       0 UNK         0.4852 
      3 O          32.9311  -49.5993  -57.5713 O.2       0 UNK        -0.5359 
      4 N          33.3493  -47.4468  -57.0437 N.am      1 UNK        -0.4300 
      5 CA         33.1471  -47.5003  -55.5880 C.3       1 UNK         0.0863 
      6 C6         32.8258  -46.0978  -55.0016 C.3       11 UNK        -0.0953 
      7 S7         33.9475  -44.7744  -55.5805 S.3       11 UNK        -0.2369 
      8 C8         33.5502  -43.4044  -54.4410 C.3       11 UNK         0.0226 
      9 C9         32.0564  -43.1146  -54.3204 C.ar      11 UNK        -0.0699 
     10 C10        31.4830  -42.9648  -53.0550 C.ar      11 UNK        -0.0804 
     11 C11        30.1104  -42.7441  -52.9170 C.ar      11 UNK        -0.0871 
     12 C12        29.3053  -42.6736  -54.0575 C.ar      11 UNK        -0.1008 
     13 C13        29.8669  -42.7991  -55.3322 C.ar      11 UNK        -0.0735 
     14 C14        31.2449  -43.0055  -55.4554 C.ar      11 UNK        -0.0945 
     15 C15        28.9916  -42.7918  -56.5790 C.3       11 UNK         0.0169 
     16 S16        27.7896  -41.4274  -56.6328 S.3       11 UNK        -0.2669 
     17 C17        27.0597  -41.6930  -58.2860 C.3       11 UNK        -0.0850 
     18 CA         25.7473  -42.5205  -58.2555 C.3       10 UNK         0.0855 
     19 C          25.0489  -42.4702  -59.6428 C.2       10 UNK         0.5543 
     20 N          24.0949  -41.5677  -59.8253 N.am      10 UNK        -0.7343 
     21 O          25.3994  -43.2045  -60.5641 O.2       10 UNK        -0.5027 
     22 N          25.9824  -43.8987  -57.7932 N.am      10 UNK        -0.4495 
     23 C          25.0266  -44.7936  -57.5131 C.2       10 UNK         0.4903 
     24 O          23.8235  -44.5327  -57.5601 O.2       10 UNK        -0.4860 
     25 CA         25.4625  -46.2020  -57.0542 C.3       9 UNK         0.0227 
     26 CB         24.6200  -47.3121  -57.7175 C.3       9 UNK        -0.1964 
     27 N          26.8988  -46.4986  -57.1621 N.am      9 UNK        -0.4231 
     28 C          27.6381  -46.6492  -58.2726 C.2       9 UNK         0.5014 
     29 O          27.2175  -46.4587  -59.4129 O.2       9 UNK        -0.5270 
     30 CA         29.0952  -47.1021  -58.0781 C.3       8 UNK         0.0284 
     31 CB         29.9970  -45.9222  -57.6896 C.3       8 UNK        -0.1977 
     32 N          29.1974  -48.1539  -57.0641 N.am      8 UNK        -0.4342 
     33 C          29.1503  -49.4673  -57.3296 C.2       8 UNK         0.5039 
     34 O          29.1134  -49.9360  -58.4682 O.2       8 UNK        -0.5547 
     35 CA         29.1057  -50.4280  -56.1269 C.3       7 UNK         0.0281 
     36 CB         30.5071  -50.9350  -55.7608 C.3       7 UNK        -0.1963 
     37 N          28.4784  -49.8272  -54.9476 N.am      7 UNK        -0.4444 
     38 C          27.1548  -49.6446  -54.8286 C.2       7 UNK         0.5104 
     39 O          26.3379  -50.0247  -55.6673 O.2       7 UNK        -0.5100 
     40 CA         26.6391  -48.9087  -53.5786 C.3       6 UNK         0.0396 
     41 CB         26.1005  -49.9174  -52.5517 C.3       6 UNK        -0.1801 
     42 N          27.6229  -48.0430  -52.9242 N.am      6 UNK        -0.4747 
     43 C          28.2169  -46.9743  -53.4742 C.2       6 UNK         0.5012 
     44 O          28.0487  -46.6167  -54.6405 O.2       6 UNK        -0.5003 
     45 CA         29.1991  -46.2037  -52.5737 C.3       5 UNK         0.0782 
     46 C46        28.4114  -45.2032  -51.6899 C.3       11 UNK        -0.0868 
     47 S47        29.4959  -44.1858  -50.6330 S.3       11 UNK        -0.2515 
     48 C48        29.4985  -42.6026  -51.5316 C.3       11 UNK         0.0199 
     49 N          30.0639  -47.0772  -51.7669 N.am      5 UNK        -0.4607 
     50 C          30.8133  -48.0980  -52.2048 C.2       4 UNK         0.5031 
     51 O          30.8181  -48.4899  -53.3734 O.2       4 UNK        -0.5119 
     52 CA         31.7207  -48.7572  -51.1483 C.3       4 UNK         0.0263 
     53 CB         30.9419  -49.1647  -49.8768 C.3       4 UNK        -0.1967 
     54 N          32.5030  -49.8842  -51.6723 N.am      4 UNK        -0.4237 
     55 C          32.0595  -51.0845  -52.0775 C.2       3 UNK         0.4908 
     56 O          30.8799  -51.4400  -52.0492 O.2       3 UNK        -0.5102 
     57 CA         33.1399  -52.0359  -52.6168 C.3       3 UNK         0.0241 
     58 CB         32.5753  -53.3617  -53.1624 C.3       3 UNK        -0.1971 
     59 N          33.8907  -51.3557  -53.6708 N.am      3 UNK        -0.4139 
     60 C          35.2044  -51.0985  -53.6539 C.2       2 UNK         0.5016 
     61 O          35.9696  -51.4744  -52.7654 O.2       2 UNK        -0.5319 
     62 CA         35.7569  -50.2553  -54.8166 C.3       2 UNK         0.0286 
     63 CB         36.3242  -51.1630  -55.9195 C.3       2 UNK        -0.1963 
     64 N          34.7532  -49.3613  -55.4018 N.am      2 UNK        -0.4790 
     65 C          34.2559  -48.2623  -54.8187 C.2       1 UNK         0.5024 
     66 O          34.6306  -47.8699  -53.7123 O.2       1 UNK        -0.4888 
     67 H67        34.1737  -48.7255  -59.8163 H         1 UNK         0.0892 
     68 H68        33.6083  -47.0731  -59.5554 H         1 UNK         0.0892 
     69 H69        32.4519  -48.3506  -59.9367 H         1 UNK         0.0892 
     70 H70        33.6241  -46.5354  -57.3836 H         1 UNK         0.3107 
     71 H71        32.2503  -48.0993  -55.4344 H         1 UNK         0.0773 
     72 H72        32.8015  -46.1090  -53.9104 H         1 UNK         0.0680 
     73 H73        31.8147  -45.8217  -55.3003 H         1 UNK         0.0680 
     74 H74        33.9740  -43.6448  -53.4647 H         1 UNK         0.0650 
     75 H75        34.0578  -42.5026  -54.7850 H         1 UNK         0.0650 
     76 H76        32.1002  -43.0389  -52.1698 H         1 UNK         0.1397 
     77 H77        28.2385  -42.5282  -53.9557 H         1 UNK         0.1363 
     78 H78        31.6855  -43.1210  -56.4361 H         1 UNK         0.1355 
     79 H79        28.4454  -43.7328  -56.6089 H         1 UNK         0.0707 
     80 H80        29.6105  -42.7492  -57.4766 H         1 UNK         0.0707 
     81 H81        27.7921  -42.1525  -58.9527 H         1 UNK         0.1034 
     82 H82        26.8670  -40.7022  -58.7029 H         1 UNK         0.1034 
     83 H83        25.0773  -42.0557  -57.5290 H         1 UNK         0.0482 
     84 H84        23.6422  -41.5075  -60.7242 H         1 UNK         0.3460 
     85 H85        23.8077  -40.9539  -59.0786 H         1 UNK         0.3460 
     86 H86        26.9401  -44.2075  -57.7694 H         1 UNK         0.2989 
     87 H87        25.2492  -46.2350  -55.9848 H         1 UNK         0.0559 
     88 H88        24.7263  -47.3074  -58.8026 H         1 UNK         0.0848 
     89 H89        23.5594  -47.1872  -57.4962 H         1 UNK         0.0848 
     90 H90        24.9089  -48.2990  -57.3561 H         1 UNK         0.0848 
     91 H91        27.3671  -46.6100  -56.2625 H         1 UNK         0.3144 
     92 H92        29.4498  -47.4815  -59.0391 H         1 UNK         0.0727 
     93 H93        31.0478  -46.1941  -57.7597 H         1 UNK         0.0790 
     94 H94        29.8098  -45.5893  -56.6693 H         1 UNK         0.0790 
     95 H95        29.8459  -45.0745  -58.3588 H         1 UNK         0.0790 
     96 H96        29.1779  -47.8610  -56.0956 H         1 UNK         0.3215 
     97 H97        28.5113  -51.2940  -56.4271 H         1 UNK         0.0863 
     98 H98        30.4573  -51.6604  -54.9501 H         1 UNK         0.0808 
     99 H99        31.1621  -50.1250  -55.4456 H         1 UNK         0.0808 
    100 H100       30.9808  -51.4249  -56.6126 H         1 UNK         0.0808 
    101 H101       29.0970  -49.4810  -54.2213 H         1 UNK         0.3118 
    102 H102       25.8108  -48.2739  -53.9003 H         1 UNK         0.0546 
    103 H103       25.3407  -50.5612  -52.9974 H         1 UNK         0.0828 
    104 H104       25.6365  -49.4138  -51.7036 H         1 UNK         0.0828 
    105 H105       26.8913  -50.5642  -52.1693 H         1 UNK         0.0828 
    106 H106       27.8600  -48.2727  -51.9696 H         1 UNK         0.3005 
    107 H107       29.8546  -45.6380  -53.2396 H         1 UNK         0.1257 
    108 H108       27.7202  -45.7352  -51.0331 H         1 UNK         0.0775 
    109 H109       27.7917  -44.5473  -52.3045 H         1 UNK         0.0775 
    110 H110       28.4796  -42.2163  -51.5900 H         1 UNK         0.0840 
    111 H111       30.0691  -41.8704  -50.9584 H         1 UNK         0.0840 
    112 H112       30.1405  -46.8115  -50.7958 H         1 UNK         0.2987 
    113 H113       32.4541  -48.0011  -50.8636 H         1 UNK         0.0785 
    114 H114       30.0962  -49.8137  -50.1076 H         1 UNK         0.0798 
    115 H115       30.5481  -48.2945  -49.3513 H         1 UNK         0.0798 
    116 H116       31.5842  -49.6938  -49.1727 H         1 UNK         0.0798 
    117 H117       33.4878  -49.6931  -51.7966 H         1 UNK         0.3079 
    118 H118       33.7908  -52.2739  -51.7728 H         1 UNK         0.0794 
    119 H119       31.9152  -53.2051  -54.0147 H         1 UNK         0.0786 
    120 H120       32.0041  -53.8888  -52.3971 H         1 UNK         0.0786 
    121 H121       33.3772  -54.0274  -53.4817 H         1 UNK         0.0786 
    122 H122       33.3464  -50.9773  -54.4333 H         1 UNK         0.3032 
    123 H123       36.5703  -49.6438  -54.4192 H         1 UNK         0.1094 
    124 H124       36.7877  -50.5784  -56.7145 H         1 UNK         0.0794 
    125 H125       37.0899  -51.8302  -55.5209 H         1 UNK         0.0794 
    126 H126       35.5495  -51.7859  -56.3688 H         1 UNK         0.0794 
    127 H127       34.3439  -49.6338  -56.2925 H         1 UNK         0.3016 
@<TRIPOS>BOND
     1    1    2 1    
     2    1   67 1    
     3    1   68 1    
     4    1   69 1    
     5    2    3 2    
     6    2    4 am   BACKBONE|DICT|INTERRES
     7    4    5 1    
     8    4   70 1    
     9    5    6 1    
    10    5   65 1    
    11    5   71 1    
    12    6    7 1    
    13    6   72 1    
    14    6   73 1    
    15    7    8 1    
    16    8    9 1    
    17    8   74 1    
    18    8   75 1    
    19    9   10 ar   
    20    9   14 ar   
    21   10   11 ar   
    22   10   76 1    
    23   11   12 ar   
    24   11   48 1    
    25   12   13 ar   
    26   12   77 1    
    27   13   14 ar   
    28   13   15 1    
    29   14   78 1    
    30   15   16 1    
    31   15   79 1    
    32   15   80 1    
    33   16   17 1    
    34   17   18 1    
    35   17   81 1    
    36   17   82 1    
    37   18   19 1    
    38   18   22 1    
    39   18   83 1    
    40   19   20 am   BACKBONE|DICT|INTERRES
    41   19   21 2    
    42   20   84 1    
    43   20   85 1    
    44   22   23 am   BACKBONE|DICT|INTERRES
    45   22   86 1    
    46   23   24 2    
    47   23   25 1    
    48   25   26 1    
    49   25   27 1    
    50   25   87 1    
    51   26   88 1    
    52   26   89 1    
    53   26   90 1    
    54   27   28 am   BACKBONE|DICT|INTERRES
    55   27   91 1    
    56   28   29 2    
    57   28   30 1    
    58   30   31 1    
    59   30   32 1    
    60   30   92 1    
    61   31   93 1    
    62   31   94 1    
    63   31   95 1    
    64   32   33 am   BACKBONE|DICT|INTERRES
    65   32   96 1    
    66   33   34 2    
    67   33   35 1    
    68   35   36 1    
    69   35   37 1    
    70   35   97 1    
    71   36   98 1    
    72   36   99 1    
    73   36  100 1    
    74   37   38 am   BACKBONE|DICT|INTERRES
    75   37  101 1    
    76   38   39 2    
    77   38   40 1    
    78   40   41 1    
    79   40   42 1    
    80   40  102 1    
    81   41  103 1    
    82   41  104 1    
    83   41  105 1    
    84   42   43 am   BACKBONE|DICT|INTERRES
    85   42  106 1    
    86   43   44 2    
    87   43   45 1    
    88   45   46 1    
    89   45   49 1    
    90   45  107 1    
    91   46   47 1    
    92   46  108 1    
    93   46  109 1    
    94   47   48 1    
    95   48  110 1    
    96   48  111 1    
    97   49   50 am   BACKBONE|DICT|INTERRES
    98   49  112 1    
    99   50   51 2    
   100   50   52 1    
   101   52   53 1    
   102   52   54 1    
   103   52  113 1    
   104   53  114 1    
   105   53  115 1    
   106   53  116 1    
   107   54   55 am   BACKBONE|DICT|INTERRES
   108   54  117 1    
   109   55   56 2    
   110   55   57 1    
   111   57   58 1    
   112   57   59 1    
   113   57  118 1    
   114   58  119 1    
   115   58  120 1    
   116   58  121 1    
   117   59   60 am   BACKBONE|DICT|INTERRES
   118   59  122 1    
   119   60   61 2    
   120   60   62 1    
   121   62   63 1    
   122   62   64 1    
   123   62  123 1    
   124   63  124 1    
   125   63  125 1    
   126   63  126 1    
   127   64   65 am   BACKBONE|DICT|INTERRES
   128   64  127 1    
   129   65   66 2    
@<TRIPOS>SUBSTRUCTURE
     1 UNK         1 GROUP             0       ****    0 ROOT    
