@<TRIPOS>MOLECULE
3R134
127   129    1
SMALL
USER_CHARGES


@<TRIPOS>ATOM
      1 CA         37.2918  -45.7268  -51.1586 C.3       0 UNK        -0.1968 
      2 C          36.0402  -46.3028  -51.8030 C.2       0 UNK         0.4852 
      3 O          36.1326  -47.2680  -52.5613 O.2       0 UNK        -0.5359 
      4 N          34.8671  -45.7316  -51.4939 N.am      1 UNK        -0.4300 
      5 CA         33.5542  -46.1003  -52.0490 C.3       1 UNK         0.0863 
      6 C6         32.4306  -45.1554  -51.5541 C.3       11 UNK        -0.0953 
      7 S7         32.8090  -43.3902  -51.8269 S.3       11 UNK        -0.2369 
      8 C8         31.2416  -42.7700  -52.5299 C.3       11 UNK         0.0226 
      9 C9         30.9815  -43.0827  -54.0061 C.ar      11 UNK        -0.0699 
     10 C10        31.8708  -43.8082  -54.8115 C.ar      11 UNK        -0.0804 
     11 C11        31.5851  -44.0410  -56.1598 C.ar      11 UNK        -0.0871 
     12 C12        30.3981  -43.5484  -56.7075 C.ar      11 UNK        -0.1008 
     13 C13        29.4965  -42.8275  -55.9209 C.ar      11 UNK        -0.0735 
     14 C14        29.8011  -42.5947  -54.5757 C.ar      11 UNK        -0.0945 
     15 C15        28.2164  -42.2792  -56.5412 C.3       11 UNK         0.0169 
     16 S16        26.7337  -42.6744  -55.5591 S.3       11 UNK        -0.2669 
     17 C17        25.4047  -42.2555  -56.7391 C.3       11 UNK        -0.0850 
     18 CA         24.5906  -43.5073  -57.1762 C.3       10 UNK         0.0855 
     19 C          23.3163  -43.1462  -58.0012 C.2       10 UNK         0.5543 
     20 N          22.8901  -43.9584  -58.9623 N.am      10 UNK        -0.7343 
     21 O          22.6785  -42.1274  -57.7454 O.2       10 UNK        -0.5027 
     22 N          25.4255  -44.5680  -57.7643 N.am      10 UNK        -0.4495 
     23 C          26.0899  -44.5121  -58.9265 C.2       10 UNK         0.4903 
     24 O          26.1631  -43.5079  -59.6349 O.2       10 UNK        -0.4860 
     25 CA         26.7656  -45.8119  -59.4003 C.3       9 UNK         0.0227 
     26 CB         28.2063  -45.8884  -58.8697 C.3       9 UNK        -0.1964 
     27 N          26.0434  -47.0322  -59.0225 N.am      9 UNK        -0.4231 
     28 C          24.7744  -47.3391  -59.3270 C.2       9 UNK         0.5014 
     29 O          24.0362  -46.6091  -59.9901 O.2       9 UNK        -0.5270 
     30 CA         24.2106  -48.6632  -58.7713 C.3       8 UNK         0.0284 
     31 CB         24.5741  -49.8522  -59.6826 C.3       8 UNK        -0.1977 
     32 N          24.5553  -48.9223  -57.3630 N.am      8 UNK        -0.4342 
     33 C          25.7629  -49.1552  -56.8320 C.2       8 UNK         0.5039 
     34 O          26.7988  -49.2736  -57.4923 O.2       8 UNK        -0.5547 
     35 CA         25.8465  -49.1821  -55.2977 C.3       7 UNK         0.0281 
     36 CB         26.1307  -50.6044  -54.7900 C.3       7 UNK        -0.1963 
     37 N          26.9050  -48.2825  -54.8374 N.am      7 UNK        -0.4444 
     38 C          26.9425  -46.9604  -55.0438 C.2       7 UNK         0.5104 
     39 O          26.0032  -46.3247  -55.5235 O.2       7 UNK        -0.5100 
     40 CA         28.2576  -46.2298  -54.7115 C.3       6 UNK         0.0396 
     41 CB         28.3891  -45.9558  -53.2024 C.3       6 UNK        -0.1801 
     42 N          29.4631  -46.8707  -55.2619 N.am      6 UNK        -0.4747 
     43 C          29.9998  -48.0611  -54.9566 C.2       6 UNK         0.5012 
     44 O          29.5462  -48.8122  -54.0878 O.2       6 UNK        -0.5003 
     45 CA         31.2059  -48.5075  -55.8052 C.3       5 UNK         0.0782 
     46 C46        32.2775  -47.4020  -56.0037 C.3       11 UNK        -0.0868 
     47 S47        31.9652  -46.4323  -57.5163 S.3       11 UNK        -0.2515 
     48 C48        32.5756  -44.7862  -57.0422 C.3       11 UNK         0.0199 
     49 N          31.7806  -49.7264  -55.2355 N.am      5 UNK        -0.4607 
     50 C          32.0603  -50.8342  -55.9313 C.2       4 UNK         0.5031 
     51 O          31.9198  -50.9247  -57.1526 O.2       4 UNK        -0.5119 
     52 CA         32.5706  -52.0464  -55.1259 C.3       4 UNK         0.0263 
     53 CB         33.0270  -53.2167  -56.0240 C.3       4 UNK        -0.1967 
     54 N          33.6210  -51.7071  -54.1593 N.am      4 UNK        -0.4237 
     55 C          34.8101  -51.1348  -54.3980 C.2       3 UNK         0.4908 
     56 O          35.1912  -50.7731  -55.5127 O.2       3 UNK        -0.5102 
     57 CA         35.7231  -50.9418  -53.1688 C.3       3 UNK         0.0241 
     58 CB         37.0873  -50.3258  -53.5317 C.3       3 UNK        -0.1971 
     59 N          35.0834  -50.1237  -52.1331 N.am      3 UNK        -0.4139 
     60 C          34.1354  -50.5578  -51.2871 C.2       2 UNK         0.5016 
     61 O          33.7225  -51.7190  -51.2799 O.2       2 UNK        -0.5319 
     62 CA         33.5144  -49.5481  -50.3033 C.3       2 UNK         0.0286 
     63 CB         34.0889  -49.7525  -48.8922 C.3       2 UNK        -0.1963 
     64 N          33.6886  -48.1468  -50.6899 N.am      2 UNK        -0.4790 
     65 C          33.1616  -47.5696  -51.7802 C.2       1 UNK         0.5024 
     66 O          32.4211  -48.1559  -52.5690 O.2       1 UNK        -0.4888 
     67 H67        37.7938  -46.4911  -50.5661 H         1 UNK         0.0892 
     68 H68        37.0642  -44.8848  -50.5052 H         1 UNK         0.0892 
     69 H69        37.9831  -45.3827  -51.9273 H         1 UNK         0.0892 
     70 H70        34.8563  -44.9349  -50.8724 H         1 UNK         0.3107 
     71 H71        33.6351  -45.9973  -53.1323 H         1 UNK         0.0773 
     72 H72        31.4927  -45.4002  -52.0557 H         1 UNK         0.0680 
     73 H73        32.2507  -45.2954  -50.4864 H         1 UNK         0.0680 
     74 H74        30.4128  -43.1483  -51.9297 H         1 UNK         0.0650 
     75 H75        31.2363  -41.6860  -52.4080 H         1 UNK         0.0650 
     76 H76        32.7994  -44.1799  -54.4068 H         1 UNK         0.1397 
     77 H77        30.1861  -43.7185  -57.7539 H         1 UNK         0.1363 
     78 H78        29.1113  -42.0259  -53.9670 H         1 UNK         0.1355 
     79 H79        28.3027  -41.1965  -56.6414 H         1 UNK         0.0707 
     80 H80        28.0868  -42.6774  -57.5485 H         1 UNK         0.0707 
     81 H81        25.8139  -41.7386  -57.6085 H         1 UNK         0.1034 
     82 H82        24.7538  -41.5328  -56.2438 H         1 UNK         0.1034 
     83 H83        24.1916  -43.9528  -56.2642 H         1 UNK         0.0482 
     84 H84        23.3986  -44.8027  -59.1984 H         1 UNK         0.3460 
     85 H85        22.0587  -43.7157  -59.4770 H         1 UNK         0.3460 
     86 H86        25.4887  -45.4140  -57.2069 H         1 UNK         0.2989 
     87 H87        26.8024  -45.7860  -60.4910 H         1 UNK         0.0559 
     88 H88        28.7900  -45.0335  -59.2122 H         1 UNK         0.0848 
     89 H89        28.7161  -46.7865  -59.2189 H         1 UNK         0.0848 
     90 H90        28.2341  -45.8880  -57.7800 H         1 UNK         0.0848 
     91 H91        26.5524  -47.7254  -58.4763 H         1 UNK         0.3144 
     92 H92        23.1237  -48.5655  -58.7892 H         1 UNK         0.0727 
     93 H93        24.1259  -50.7784  -59.3232 H         1 UNK         0.0790 
     94 H94        25.6515  -50.0053  -59.7501 H         1 UNK         0.0790 
     95 H95        24.2089  -49.6875  -60.6972 H         1 UNK         0.0790 
     96 H96        23.7836  -48.8096  -56.7190 H         1 UNK         0.3215 
     97 H97        24.9015  -48.8375  -54.8725 H         1 UNK         0.0863 
     98 H98        26.1705  -50.6368  -53.7010 H         1 UNK         0.0808 
     99 H99        27.0792  -50.9857  -55.1714 H         1 UNK         0.0808 
    100 H100       25.3491  -51.2959  -55.1073 H         1 UNK         0.0808 
    101 H101       27.7552  -48.7099  -54.4774 H         1 UNK         0.3118 
    102 H102       28.2002  -45.2616  -55.2078 H         1 UNK         0.0546 
    103 H103       28.4637  -46.8741  -52.6199 H         1 UNK         0.0828 
    104 H104       27.5228  -45.4053  -52.8334 H         1 UNK         0.0828 
    105 H105       29.2689  -45.3500  -52.9904 H         1 UNK         0.0828 
    106 H106       29.9249  -46.3390  -55.9892 H         1 UNK         0.3005 
    107 H107       30.7748  -48.7598  -56.7773 H         1 UNK         0.1257 
    108 H108       32.3506  -46.7513  -55.1307 H         1 UNK         0.0775 
    109 H109       33.2671  -47.8480  -56.1197 H         1 UNK         0.0775 
    110 H110       32.7497  -44.2042  -57.9485 H         1 UNK         0.0840 
    111 H111       33.5471  -44.8829  -56.5545 H         1 UNK         0.0840 
    112 H112       31.8803  -49.7169  -54.2276 H         1 UNK         0.2987 
    113 H113       31.7194  -52.3968  -54.5402 H         1 UNK         0.0785 
    114 H114       33.3425  -54.0738  -55.4292 H         1 UNK         0.0798 
    115 H115       33.8591  -52.9309  -56.6684 H         1 UNK         0.0798 
    116 H116       32.2157  -53.5541  -56.6703 H         1 UNK         0.0798 
    117 H117       33.4191  -51.9289  -53.1872 H         1 UNK         0.3079 
    118 H118       35.9157  -51.9345  -52.7559 H         1 UNK         0.0794 
    119 H119       37.6266  -50.9602  -54.2363 H         1 UNK         0.0786 
    120 H120       37.7191  -50.2099  -52.6509 H         1 UNK         0.0786 
    121 H121       36.9771  -49.3454  -53.9962 H         1 UNK         0.0786 
    122 H122       35.3406  -49.1414  -52.1196 H         1 UNK         0.3032 
    123 H123       32.4419  -49.7534  -50.2723 H         1 UNK         0.1094 
    124 H124       35.1588  -49.5425  -48.8573 H         1 UNK         0.0794 
    125 H125       33.5947  -49.1087  -48.1643 H         1 UNK         0.0794 
    126 H126       33.9481  -50.7816  -48.5583 H         1 UNK         0.0794 
    127 H127       34.2920  -47.5864  -50.1053 H         1 UNK         0.3016 
@<TRIPOS>BOND
     1    1    2 1    
     2    1   67 1    
     3    1   68 1    
     4    1   69 1    
     5    2    3 2    
     6    2    4 am   BACKBONE|DICT|INTERRES
     7    4    5 1    
     8    4   70 1    
     9    5    6 1    
    10    5   65 1    
    11    5   71 1    
    12    6    7 1    
    13    6   72 1    
    14    6   73 1    
    15    7    8 1    
    16    8    9 1    
    17    8   74 1    
    18    8   75 1    
    19    9   10 ar   
    20    9   14 ar   
    21   10   11 ar   
    22   10   76 1    
    23   11   12 ar   
    24   11   48 1    
    25   12   13 ar   
    26   12   77 1    
    27   13   14 ar   
    28   13   15 1    
    29   14   78 1    
    30   15   16 1    
    31   15   79 1    
    32   15   80 1    
    33   16   17 1    
    34   17   18 1    
    35   17   81 1    
    36   17   82 1    
    37   18   19 1    
    38   18   22 1    
    39   18   83 1    
    40   19   20 am   BACKBONE|DICT|INTERRES
    41   19   21 2    
    42   20   84 1    
    43   20   85 1    
    44   22   23 am   BACKBONE|DICT|INTERRES
    45   22   86 1    
    46   23   24 2    
    47   23   25 1    
    48   25   26 1    
    49   25   27 1    
    50   25   87 1    
    51   26   88 1    
    52   26   89 1    
    53   26   90 1    
    54   27   28 am   BACKBONE|DICT|INTERRES
    55   27   91 1    
    56   28   29 2    
    57   28   30 1    
    58   30   31 1    
    59   30   32 1    
    60   30   92 1    
    61   31   93 1    
    62   31   94 1    
    63   31   95 1    
    64   32   33 am   BACKBONE|DICT|INTERRES
    65   32   96 1    
    66   33   34 2    
    67   33   35 1    
    68   35   36 1    
    69   35   37 1    
    70   35   97 1    
    71   36   98 1    
    72   36   99 1    
    73   36  100 1    
    74   37   38 am   BACKBONE|DICT|INTERRES
    75   37  101 1    
    76   38   39 2    
    77   38   40 1    
    78   40   41 1    
    79   40   42 1    
    80   40  102 1    
    81   41  103 1    
    82   41  104 1    
    83   41  105 1    
    84   42   43 am   BACKBONE|DICT|INTERRES
    85   42  106 1    
    86   43   44 2    
    87   43   45 1    
    88   45   46 1    
    89   45   49 1    
    90   45  107 1    
    91   46   47 1    
    92   46  108 1    
    93   46  109 1    
    94   47   48 1    
    95   48  110 1    
    96   48  111 1    
    97   49   50 am   BACKBONE|DICT|INTERRES
    98   49  112 1    
    99   50   51 2    
   100   50   52 1    
   101   52   53 1    
   102   52   54 1    
   103   52  113 1    
   104   53  114 1    
   105   53  115 1    
   106   53  116 1    
   107   54   55 am   BACKBONE|DICT|INTERRES
   108   54  117 1    
   109   55   56 2    
   110   55   57 1    
   111   57   58 1    
   112   57   59 1    
   113   57  118 1    
   114   58  119 1    
   115   58  120 1    
   116   58  121 1    
   117   59   60 am   BACKBONE|DICT|INTERRES
   118   59  122 1    
   119   60   61 2    
   120   60   62 1    
   121   62   63 1    
   122   62   64 1    
   123   62  123 1    
   124   63  124 1    
   125   63  125 1    
   126   63  126 1    
   127   64   65 am   BACKBONE|DICT|INTERRES
   128   64  127 1    
   129   65   66 2    
@<TRIPOS>SUBSTRUCTURE
     1 UNK         1 GROUP             0       ****    0 ROOT    
