@<TRIPOS>MOLECULE
3R134
127   129    1
SMALL
USER_CHARGES


@<TRIPOS>ATOM
      1 CA         37.9263  -45.7972  -53.0980 C.3       0 UNK        -0.1968 
      2 C          37.0028  -44.9125  -53.9225 C.2       0 UNK         0.4852 
      3 O          37.1901  -44.7967  -55.1345 O.2       0 UNK        -0.5359 
      4 N          36.0102  -44.2867  -53.2743 N.am      1 UNK        -0.4300 
      5 CA         35.0034  -43.4260  -53.9093 C.3       1 UNK         0.0863 
      6 C6         34.2698  -42.5635  -52.8520 C.3       11 UNK        -0.0953 
      7 S7         33.4273  -41.1195  -53.5822 S.3       11 UNK        -0.2369 
      8 C8         31.9644  -40.9562  -52.5130 C.3       11 UNK         0.0226 
      9 C9         30.9551  -42.0831  -52.6986 C.ar      11 UNK        -0.0699 
     10 C10        30.7761  -43.0388  -51.6937 C.ar      11 UNK        -0.0804 
     11 C11        29.7897  -44.0235  -51.8111 C.ar      11 UNK        -0.0871 
     12 C12        28.9802  -44.0472  -52.9513 C.ar      11 UNK        -0.1008 
     13 C13        29.1669  -43.1148  -53.9776 C.ar      11 UNK        -0.0735 
     14 C14        30.1562  -42.1349  -53.8452 C.ar      11 UNK        -0.0945 
     15 C15        28.2681  -43.1426  -55.2065 C.3       11 UNK         0.0169 
     16 S16        28.5395  -44.6273  -56.2226 S.3       11 UNK        -0.2669 
     17 C17        30.1566  -44.2787  -57.0062 C.3       11 UNK        -0.0850 
     18 CA         30.1971  -44.6107  -58.5252 C.3       10 UNK         0.0855 
     19 C          31.5811  -44.2812  -59.1602 C.2       10 UNK         0.5543 
     20 N          32.1839  -45.1642  -59.9463 N.am      10 UNK        -0.7343 
     21 O          32.0944  -43.1805  -58.9786 O.2       10 UNK        -0.5027 
     22 N          29.6415  -45.9381  -58.8445 N.am      10 UNK        -0.4495 
     23 C          30.0778  -47.1445  -58.4632 C.2       10 UNK         0.4903 
     24 O          31.1227  -47.3596  -57.8436 O.2       10 UNK        -0.4860 
     25 CA         29.1244  -48.3000  -58.8097 C.3       9 UNK         0.0227 
     26 CB         29.7571  -49.6901  -58.6395 C.3       9 UNK        -0.1964 
     27 N          27.9252  -48.2094  -57.9771 N.am      9 UNK        -0.4231 
     28 C          26.8687  -47.4252  -58.2412 C.2       9 UNK         0.5014 
     29 O          26.7856  -46.7198  -59.2503 O.2       9 UNK        -0.5270 
     30 CA         25.7319  -47.4182  -57.2004 C.3       8 UNK         0.0284 
     31 CB         24.4112  -46.8333  -57.7442 C.3       8 UNK        -0.1977 
     32 N          25.5184  -48.7353  -56.5929 N.am      8 UNK        -0.4342 
     33 C          25.1786  -49.8777  -57.2127 C.2       8 UNK         0.5039 
     34 O          24.8780  -49.9509  -58.4049 O.2       8 UNK        -0.5547 
     35 CA         25.2189  -51.1736  -56.3815 C.3       7 UNK         0.0281 
     36 CB         26.3307  -52.0988  -56.9038 C.3       7 UNK        -0.1963 
     37 N          25.4481  -50.9223  -54.9571 N.am      7 UNK        -0.4444 
     38 C          24.4852  -50.6446  -54.0686 C.2       7 UNK         0.5104 
     39 O          23.2833  -50.6463  -54.3346 O.2       7 UNK        -0.5100 
     40 CA         24.9433  -50.2795  -52.6452 C.3       6 UNK         0.0396 
     41 CB         24.9232  -51.5224  -51.7415 C.3       6 UNK        -0.1801 
     42 N          26.2739  -49.6621  -52.5902 N.am      6 UNK        -0.4747 
     43 C          26.5921  -48.4651  -53.1084 C.2       6 UNK         0.5012 
     44 O          25.8038  -47.7605  -53.7371 O.2       6 UNK        -0.5003 
     45 CA         28.0506  -48.0022  -52.9237 C.3       5 UNK         0.0782 
     46 C46        28.2187  -47.3788  -51.5151 C.3       11 UNK        -0.0868 
     47 S47        29.8984  -46.7441  -51.1872 S.3       11 UNK        -0.2515 
     48 C48        29.5757  -45.0223  -50.6798 C.3       11 UNK         0.0199 
     49 N          29.0041  -49.0908  -53.1796 N.am      5 UNK        -0.4607 
     50 C          29.1488  -49.7191  -54.3532 C.2       4 UNK         0.5031 
     51 O          28.4949  -49.4502  -55.3645 O.2       4 UNK        -0.5119 
     52 CA         30.2146  -50.8157  -54.4204 C.3       4 UNK         0.0263 
     53 CB         29.6488  -52.1192  -55.0169 C.3       4 UNK        -0.1967 
     54 N          31.3044  -50.2982  -55.2359 N.am      4 UNK        -0.4237 
     55 C          32.5326  -50.8178  -55.3603 C.2       3 UNK         0.4908 
     56 O          32.9023  -51.8568  -54.8128 O.2       3 UNK        -0.5102 
     57 CA         33.5273  -50.0242  -56.2281 C.3       3 UNK         0.0241 
     58 CB         33.5209  -50.5312  -57.6782 C.3       3 UNK        -0.1971 
     59 N          33.2306  -48.5889  -56.2025 N.am      3 UNK        -0.4139 
     60 C          33.5673  -47.7913  -55.1823 C.2       2 UNK         0.5016 
     61 O          34.3033  -48.1260  -54.2492 O.2       2 UNK        -0.5319 
     62 CA         32.9112  -46.4125  -55.1658 C.3       2 UNK         0.0286 
     63 CB         31.5448  -46.4926  -54.4610 C.3       2 UNK        -0.1963 
     64 N          33.7693  -45.4907  -54.4332 N.am      2 UNK        -0.4790 
     65 C          34.0126  -44.2239  -54.7881 C.2       1 UNK         0.5024 
     66 O          33.5070  -43.6876  -55.7744 O.2       1 UNK        -0.4888 
     67 H67        38.9583  -45.4635  -53.2025 H         1 UNK         0.0892 
     68 H68        37.6707  -45.7802  -52.0387 H         1 UNK         0.0892 
     69 H69        37.8639  -46.8284  -53.4451 H         1 UNK         0.0892 
     70 H70        35.9138  -44.4143  -52.2767 H         1 UNK         0.3107 
     71 H71        35.5441  -42.7505  -54.5764 H         1 UNK         0.0773 
     72 H72        33.5655  -43.1705  -52.2815 H         1 UNK         0.0680 
     73 H73        34.9848  -42.1724  -52.1264 H         1 UNK         0.0680 
     74 H74        31.4775  -40.0058  -52.7359 H         1 UNK         0.0650 
     75 H75        32.2895  -40.8917  -51.4733 H         1 UNK         0.0650 
     76 H76        31.3899  -42.9976  -50.8042 H         1 UNK         0.1397 
     77 H77        28.2046  -44.7938  -53.0455 H         1 UNK         0.1363 
     78 H78        30.2938  -41.3967  -54.6235 H         1 UNK         0.1355 
     79 H79        27.2269  -43.1297  -54.8813 H         1 UNK         0.0707 
     80 H80        28.4062  -42.2506  -55.8195 H         1 UNK         0.0707 
     81 H81        30.9201  -44.8460  -56.4839 H         1 UNK         0.1034 
     82 H82        30.4145  -43.2304  -56.8452 H         1 UNK         0.1034 
     83 H83        29.5105  -43.9161  -59.0105 H         1 UNK         0.0482 
     84 H84        31.7733  -46.0718  -60.0940 H         1 UNK         0.3460 
     85 H85        33.0691  -44.9311  -60.3672 H         1 UNK         0.3460 
     86 H86        28.7408  -45.9172  -59.3095 H         1 UNK         0.2989 
     87 H87        28.8441  -48.1994  -59.8605 H         1 UNK         0.0559 
     88 H88        30.0789  -49.8693  -57.6161 H         1 UNK         0.0848 
     89 H89        30.6254  -49.7982  -59.2894 H         1 UNK         0.0848 
     90 H90        29.0541  -50.4788  -58.9076 H         1 UNK         0.0848 
     91 H91        27.9576  -48.7026  -57.0881 H         1 UNK         0.3144 
     92 H92        26.0711  -46.7659  -56.3942 H         1 UNK         0.0727 
     93 H93        23.6342  -46.8326  -56.9798 H         1 UNK         0.0790 
     94 H94        24.0404  -47.3963  -58.6011 H         1 UNK         0.0790 
     95 H95        24.5469  -45.8007  -58.0683 H         1 UNK         0.0790 
     96 H96        25.7208  -48.7771  -55.6009 H         1 UNK         0.3215 
     97 H97        24.2604  -51.6814  -56.5104 H         1 UNK         0.0863 
     98 H98        27.2988  -51.5984  -56.9002 H         1 UNK         0.0808 
     99 H99        26.1309  -52.4044  -57.9317 H         1 UNK         0.0808 
    100 H100       26.4133  -53.0070  -56.3066 H         1 UNK         0.0808 
    101 H101       26.4099  -50.8774  -54.6523 H         1 UNK         0.3118 
    102 H102       24.2264  -49.5581  -52.2472 H         1 UNK         0.0546 
    103 H103       25.1572  -51.2669  -50.7079 H         1 UNK         0.0828 
    104 H104       25.6385  -52.2763  -52.0728 H         1 UNK         0.0828 
    105 H105       23.9367  -51.9884  -51.7412 H         1 UNK         0.0828 
    106 H106       26.9925  -50.1755  -52.0994 H         1 UNK         0.3005 
    107 H107       28.2383  -47.2253  -53.6692 H         1 UNK         0.1257 
    108 H108       27.9931  -48.1142  -50.7403 H         1 UNK         0.0775 
    109 H109       27.4948  -46.5734  -51.3792 H         1 UNK         0.0775 
    110 H110       28.5665  -44.9148  -50.2810 H         1 UNK         0.0840 
    111 H111       30.2430  -44.7949  -49.8471 H         1 UNK         0.0840 
    112 H112       29.6038  -49.3408  -52.4062 H         1 UNK         0.2987 
    113 H113       30.5876  -51.0183  -53.4143 H         1 UNK         0.0785 
    114 H114       30.3584  -52.9405  -54.9184 H         1 UNK         0.0798 
    115 H115       28.7330  -52.4232  -54.5084 H         1 UNK         0.0798 
    116 H116       29.4202  -52.0088  -56.0767 H         1 UNK         0.0798 
    117 H117       31.0954  -49.4349  -55.7179 H         1 UNK         0.3079 
    118 H118       34.5275  -50.1879  -55.8202 H         1 UNK         0.0794 
    119 H119       33.7698  -51.5925  -57.7202 H         1 UNK         0.0786 
    120 H120       34.2551  -50.0019  -58.2859 H         1 UNK         0.0786 
    121 H121       32.5464  -50.4072  -58.1469 H         1 UNK         0.0786 
    122 H122       32.6113  -48.2243  -56.9231 H         1 UNK         0.3032 
    123 H123       32.7931  -46.0755  -56.1976 H         1 UNK         0.1094 
    124 H124       31.6194  -47.0158  -53.5079 H         1 UNK         0.0794 
    125 H125       31.1369  -45.5026  -54.2579 H         1 UNK         0.0794 
    126 H126       30.8150  -47.0253  -55.0712 H         1 UNK         0.0794 
    127 H127       34.2817  -45.9035  -53.6648 H         1 UNK         0.3016 
@<TRIPOS>BOND
     1    1    2 1    
     2    1   67 1    
     3    1   68 1    
     4    1   69 1    
     5    2    3 2    
     6    2    4 am   BACKBONE|DICT|INTERRES
     7    4    5 1    
     8    4   70 1    
     9    5    6 1    
    10    5   65 1    
    11    5   71 1    
    12    6    7 1    
    13    6   72 1    
    14    6   73 1    
    15    7    8 1    
    16    8    9 1    
    17    8   74 1    
    18    8   75 1    
    19    9   10 ar   
    20    9   14 ar   
    21   10   11 ar   
    22   10   76 1    
    23   11   12 ar   
    24   11   48 1    
    25   12   13 ar   
    26   12   77 1    
    27   13   14 ar   
    28   13   15 1    
    29   14   78 1    
    30   15   16 1    
    31   15   79 1    
    32   15   80 1    
    33   16   17 1    
    34   17   18 1    
    35   17   81 1    
    36   17   82 1    
    37   18   19 1    
    38   18   22 1    
    39   18   83 1    
    40   19   20 am   BACKBONE|DICT|INTERRES
    41   19   21 2    
    42   20   84 1    
    43   20   85 1    
    44   22   23 am   BACKBONE|DICT|INTERRES
    45   22   86 1    
    46   23   24 2    
    47   23   25 1    
    48   25   26 1    
    49   25   27 1    
    50   25   87 1    
    51   26   88 1    
    52   26   89 1    
    53   26   90 1    
    54   27   28 am   BACKBONE|DICT|INTERRES
    55   27   91 1    
    56   28   29 2    
    57   28   30 1    
    58   30   31 1    
    59   30   32 1    
    60   30   92 1    
    61   31   93 1    
    62   31   94 1    
    63   31   95 1    
    64   32   33 am   BACKBONE|DICT|INTERRES
    65   32   96 1    
    66   33   34 2    
    67   33   35 1    
    68   35   36 1    
    69   35   37 1    
    70   35   97 1    
    71   36   98 1    
    72   36   99 1    
    73   36  100 1    
    74   37   38 am   BACKBONE|DICT|INTERRES
    75   37  101 1    
    76   38   39 2    
    77   38   40 1    
    78   40   41 1    
    79   40   42 1    
    80   40  102 1    
    81   41  103 1    
    82   41  104 1    
    83   41  105 1    
    84   42   43 am   BACKBONE|DICT|INTERRES
    85   42  106 1    
    86   43   44 2    
    87   43   45 1    
    88   45   46 1    
    89   45   49 1    
    90   45  107 1    
    91   46   47 1    
    92   46  108 1    
    93   46  109 1    
    94   47   48 1    
    95   48  110 1    
    96   48  111 1    
    97   49   50 am   BACKBONE|DICT|INTERRES
    98   49  112 1    
    99   50   51 2    
   100   50   52 1    
   101   52   53 1    
   102   52   54 1    
   103   52  113 1    
   104   53  114 1    
   105   53  115 1    
   106   53  116 1    
   107   54   55 am   BACKBONE|DICT|INTERRES
   108   54  117 1    
   109   55   56 2    
   110   55   57 1    
   111   57   58 1    
   112   57   59 1    
   113   57  118 1    
   114   58  119 1    
   115   58  120 1    
   116   58  121 1    
   117   59   60 am   BACKBONE|DICT|INTERRES
   118   59  122 1    
   119   60   61 2    
   120   60   62 1    
   121   62   63 1    
   122   62   64 1    
   123   62  123 1    
   124   63  124 1    
   125   63  125 1    
   126   63  126 1    
   127   64   65 am   BACKBONE|DICT|INTERRES
   128   64  127 1    
   129   65   66 2    
@<TRIPOS>SUBSTRUCTURE
     1 UNK         1 GROUP             0       ****    0 ROOT    
