@<TRIPOS>MOLECULE
3R134
127   129    1
SMALL
USER_CHARGES


@<TRIPOS>ATOM
      1 CA         35.0003  -52.4640  -56.3584 C.3       0 UNK        -0.1968 
      2 C          34.3241  -51.2970  -55.6566 C.2       0 UNK         0.4852 
      3 O          34.2869  -51.2661  -54.4245 O.2       0 UNK        -0.5359 
      4 N          33.8075  -50.3259  -56.4264 N.am      1 UNK        -0.4300 
      5 CA         33.0699  -49.1528  -55.9339 C.3       1 UNK         0.0863 
      6 C6         32.4395  -48.3396  -57.0939 C.3       11 UNK        -0.0953 
      7 S7         31.0323  -47.3153  -56.5418 S.3       11 UNK        -0.2369 
      8 C8         31.7817  -45.6593  -56.5671 C.3       11 UNK         0.0226 
      9 C9         31.1127  -44.7539  -55.5487 C.ar      11 UNK        -0.0699 
     10 C10        31.6344  -44.6512  -54.2569 C.ar      11 UNK        -0.0804 
     11 C11        31.0108  -43.8520  -53.2945 C.ar      11 UNK        -0.0871 
     12 C12        29.8710  -43.1210  -53.6513 C.ar      11 UNK        -0.1008 
     13 C13        29.3635  -43.1828  -54.9548 C.ar      11 UNK        -0.0735 
     14 C14        29.9823  -44.0115  -55.8952 C.ar      11 UNK        -0.0945 
     15 C15        28.1954  -42.3022  -55.3768 C.3       11 UNK         0.0169 
     16 S16        26.7370  -43.2654  -55.8830 S.3       11 UNK        -0.2669 
     17 C17        25.8426  -41.9836  -56.8243 C.3       11 UNK        -0.0850 
     18 CA         24.4174  -42.4153  -57.2805 C.3       10 UNK         0.0855 
     19 C          23.6143  -41.2338  -57.9085 C.2       10 UNK         0.5543 
     20 N          22.7463  -41.4688  -58.8854 N.am      10 UNK        -0.7343 
     21 O          23.7528  -40.0885  -57.4852 O.2       10 UNK        -0.5027 
     22 N          24.3940  -43.6585  -58.0770 N.am      10 UNK        -0.4495 
     23 C          24.9974  -43.8670  -59.2548 C.2       10 UNK         0.4903 
     24 O          25.7152  -43.0464  -59.8294 O.2       10 UNK        -0.4860 
     25 CA         24.7231  -45.2263  -59.9242 C.3       9 UNK         0.0227 
     26 CB         24.0928  -45.0385  -61.3150 C.3       9 UNK        -0.1964 
     27 N          25.9386  -46.0340  -60.0453 N.am      9 UNK        -0.4231 
     28 C          26.6068  -46.5477  -59.0055 C.2       9 UNK         0.5014 
     29 O          26.2668  -46.3860  -57.8319 O.2       9 UNK        -0.5270 
     30 CA         27.8699  -47.3650  -59.3314 C.3       8 UNK         0.0284 
     31 CB         29.0578  -46.4304  -59.6166 C.3       8 UNK        -0.1977 
     32 N          28.2139  -48.2278  -58.2021 N.am      8 UNK        -0.4342 
     33 C          27.6248  -49.3956  -57.9102 C.2       8 UNK         0.5039 
     34 O          26.8803  -50.0037  -58.6806 O.2       8 UNK        -0.5547 
     35 CA         27.8804  -49.9530  -56.4965 C.3       7 UNK         0.0281 
     36 CB         29.1644  -50.7977  -56.4601 C.3       7 UNK        -0.1963 
     37 N          27.9592  -48.8694  -55.5101 N.am      7 UNK        -0.4444 
     38 C          26.8954  -48.1625  -55.0954 C.2       7 UNK         0.5104 
     39 O          25.7308  -48.5188  -55.2851 O.2       7 UNK        -0.5100 
     40 CA         27.1780  -46.8129  -54.4033 C.3       6 UNK         0.0396 
     41 CB         26.0239  -46.3334  -53.4982 C.3       6 UNK        -0.1801 
     42 N          28.4672  -46.7598  -53.7092 N.am      6 UNK        -0.4747 
     43 C          28.8321  -47.4709  -52.6339 C.2       6 UNK         0.5012 
     44 O          28.0866  -48.2309  -52.0106 O.2       6 UNK        -0.5003 
     45 CA         30.2906  -47.2738  -52.1771 C.3       5 UNK         0.0782 
     46 C46        30.3694  -46.1581  -51.1048 C.3       11 UNK        -0.0868 
     47 S47        31.9980  -45.3457  -51.1149 S.3       11 UNK        -0.2515 
     48 C48        31.5912  -43.7366  -51.8851 C.3       11 UNK         0.0199 
     49 N          30.9193  -48.5235  -51.7283 N.am      5 UNK        -0.4607 
     50 C          30.9911  -49.6467  -52.4553 C.2       4 UNK         0.5031 
     51 O          30.5399  -49.7540  -53.5958 O.2       4 UNK        -0.5119 
     52 CA         31.7109  -50.8388  -51.8109 C.3       4 UNK         0.0263 
     53 CB         31.3428  -52.1739  -52.4858 C.3       4 UNK        -0.1967 
     54 N          33.1554  -50.6509  -51.9110 N.am      4 UNK        -0.4237 
     55 C          33.9271  -50.1035  -50.9636 C.2       3 UNK         0.4908 
     56 O          33.4950  -49.6716  -49.8941 O.2       3 UNK        -0.5102 
     57 CA         35.4318  -50.0254  -51.2573 C.3       3 UNK         0.0241 
     58 CB         36.0683  -51.4261  -51.2412 C.3       3 UNK        -0.1971 
     59 N          35.6648  -49.3984  -52.5571 N.am      3 UNK        -0.4139 
     60 C          36.1080  -48.1458  -52.7352 C.2       2 UNK         0.5016 
     61 O          36.4725  -47.4085  -51.8182 O.2       2 UNK        -0.5319 
     62 CA         36.1548  -47.6110  -54.1817 C.3       2 UNK         0.0286 
     63 CB         37.5794  -47.7187  -54.7492 C.3       2 UNK        -0.1963 
     64 N          35.2235  -48.2812  -55.0954 N.am      2 UNK        -0.4790 
     65 C          33.8878  -48.2604  -54.9710 C.2       1 UNK         0.5024 
     66 O          33.3072  -47.6080  -54.1059 O.2       1 UNK        -0.4888 
     67 H67        36.0425  -52.5341  -56.0485 H         1 UNK         0.0892 
     68 H68        34.5028  -53.3966  -56.0939 H         1 UNK         0.0892 
     69 H69        34.9736  -52.3605  -57.4429 H         1 UNK         0.0892 
     70 H70        33.8853  -50.4034  -57.4307 H         1 UNK         0.3107 
     71 H71        32.2536  -49.5676  -55.3462 H         1 UNK         0.0773 
     72 H72        32.0433  -49.0189  -57.8502 H         1 UNK         0.0680 
     73 H73        33.1859  -47.7303  -57.6068 H         1 UNK         0.0680 
     74 H74        31.6966  -45.2392  -57.5703 H         1 UNK         0.0650 
     75 H75        32.8485  -45.7252  -56.3489 H         1 UNK         0.0650 
     76 H76        32.5240  -45.2058  -53.9933 H         1 UNK         0.1397 
     77 H77        29.3966  -42.4770  -52.9232 H         1 UNK         0.1363 
     78 H78        29.5880  -44.0672  -56.9008 H         1 UNK         0.1355 
     79 H79        27.9081  -41.6224  -54.5732 H         1 UNK         0.0707 
     80 H80        28.5226  -41.6758  -56.2081 H         1 UNK         0.0707 
     81 H81        25.7805  -41.0983  -56.1885 H         1 UNK         0.1034 
     82 H82        26.4470  -41.6921  -57.6846 H         1 UNK         0.1034 
     83 H83        23.8624  -42.6583  -56.3738 H         1 UNK         0.0482 
     84 H84        22.6087  -42.4042  -59.2318 H         1 UNK         0.3460 
     85 H85        22.2235  -40.7013  -59.2774 H         1 UNK         0.3460 
     86 H86        23.8467  -44.4097  -57.6822 H         1 UNK         0.2989 
     87 H87        24.0119  -45.7849  -59.3115 H         1 UNK         0.0559 
     88 H88        24.7653  -44.5185  -61.9986 H         1 UNK         0.0848 
     89 H89        23.1765  -44.4500  -61.2517 H         1 UNK         0.0848 
     90 H90        23.8298  -45.9957  -61.7657 H         1 UNK         0.0848 
     91 H91        26.3006  -46.1744  -60.9776 H         1 UNK         0.3144 
     92 H92        27.6790  -47.9832  -60.2112 H         1 UNK         0.0727 
     93 H93        28.8664  -45.8048  -60.4892 H         1 UNK         0.0790 
     94 H94        29.9687  -46.9953  -59.8169 H         1 UNK         0.0790 
     95 H95        29.2564  -45.7639  -58.7763 H         1 UNK         0.0790 
     96 H96        28.7912  -47.8051  -57.4893 H         1 UNK         0.3215 
     97 H97        27.0410  -50.6013  -56.2359 H         1 UNK         0.0863 
     98 H98        30.0514  -50.2027  -56.6753 H         1 UNK         0.0808 
     99 H99        29.1233  -51.6010  -57.1967 H         1 UNK         0.0808 
    100 H100       29.3035  -51.2621  -55.4838 H         1 UNK         0.0808 
    101 H101       28.8834  -48.5639  -55.2351 H         1 UNK         0.3118 
    102 H102       27.2653  -46.0928  -55.2169 H         1 UNK         0.0546 
    103 H103       25.8115  -47.0413  -52.6970 H         1 UNK         0.0828 
    104 H104       25.1062  -46.2104  -54.0744 H         1 UNK         0.0828 
    105 H105       26.2504  -45.3673  -53.0474 H         1 UNK         0.0828 
    106 H106       29.1491  -46.1403  -54.1293 H         1 UNK         0.3005 
    107 H107       30.8567  -46.9675  -53.0586 H         1 UNK         0.1257 
    108 H108       30.1755  -46.5611  -50.1092 H         1 UNK         0.0775 
    109 H109       29.6087  -45.3900  -51.2617 H         1 UNK         0.0775 
    110 H110       30.9043  -43.2010  -51.2279 H         1 UNK         0.0840 
    111 H111       32.4993  -43.1344  -51.9324 H         1 UNK         0.0840 
    112 H112       31.3505  -48.5082  -50.8150 H         1 UNK         0.2987 
    113 H113       31.4049  -50.8981  -50.7641 H         1 UNK         0.0785 
    114 H114       30.2654  -52.3415  -52.4562 H         1 UNK         0.0798 
    115 H115       31.8174  -53.0157  -51.9816 H         1 UNK         0.0798 
    116 H116       31.6485  -52.1969  -53.5330 H         1 UNK         0.0798 
    117 H117       33.5797  -50.9376  -52.7924 H         1 UNK         0.3079 
    118 H118       35.8953  -49.4387  -50.4612 H         1 UNK         0.0794 
    119 H119       35.8897  -51.9250  -50.2877 H         1 UNK         0.0786 
    120 H120       37.1481  -51.3684  -51.3792 H         1 UNK         0.0786 
    121 H121       35.6667  -52.0675  -52.0269 H         1 UNK         0.0786 
    122 H122       35.3533  -49.9209  -53.3695 H         1 UNK         0.3032 
    123 H123       35.8779  -46.5549  -54.1406 H         1 UNK         0.1094 
    124 H124       38.2952  -47.2044  -54.1062 H         1 UNK         0.0794 
    125 H125       37.9037  -48.7568  -54.8322 H         1 UNK         0.0794 
    126 H126       37.6497  -47.2629  -55.7371 H         1 UNK         0.0794 
    127 H127       35.6273  -48.8451  -55.8295 H         1 UNK         0.3016 
@<TRIPOS>BOND
     1    1    2 1    
     2    1   67 1    
     3    1   68 1    
     4    1   69 1    
     5    2    3 2    
     6    2    4 am   BACKBONE|DICT|INTERRES
     7    4    5 1    
     8    4   70 1    
     9    5    6 1    
    10    5   65 1    
    11    5   71 1    
    12    6    7 1    
    13    6   72 1    
    14    6   73 1    
    15    7    8 1    
    16    8    9 1    
    17    8   74 1    
    18    8   75 1    
    19    9   10 ar   
    20    9   14 ar   
    21   10   11 ar   
    22   10   76 1    
    23   11   12 ar   
    24   11   48 1    
    25   12   13 ar   
    26   12   77 1    
    27   13   14 ar   
    28   13   15 1    
    29   14   78 1    
    30   15   16 1    
    31   15   79 1    
    32   15   80 1    
    33   16   17 1    
    34   17   18 1    
    35   17   81 1    
    36   17   82 1    
    37   18   19 1    
    38   18   22 1    
    39   18   83 1    
    40   19   20 am   BACKBONE|DICT|INTERRES
    41   19   21 2    
    42   20   84 1    
    43   20   85 1    
    44   22   23 am   BACKBONE|DICT|INTERRES
    45   22   86 1    
    46   23   24 2    
    47   23   25 1    
    48   25   26 1    
    49   25   27 1    
    50   25   87 1    
    51   26   88 1    
    52   26   89 1    
    53   26   90 1    
    54   27   28 am   BACKBONE|DICT|INTERRES
    55   27   91 1    
    56   28   29 2    
    57   28   30 1    
    58   30   31 1    
    59   30   32 1    
    60   30   92 1    
    61   31   93 1    
    62   31   94 1    
    63   31   95 1    
    64   32   33 am   BACKBONE|DICT|INTERRES
    65   32   96 1    
    66   33   34 2    
    67   33   35 1    
    68   35   36 1    
    69   35   37 1    
    70   35   97 1    
    71   36   98 1    
    72   36   99 1    
    73   36  100 1    
    74   37   38 am   BACKBONE|DICT|INTERRES
    75   37  101 1    
    76   38   39 2    
    77   38   40 1    
    78   40   41 1    
    79   40   42 1    
    80   40  102 1    
    81   41  103 1    
    82   41  104 1    
    83   41  105 1    
    84   42   43 am   BACKBONE|DICT|INTERRES
    85   42  106 1    
    86   43   44 2    
    87   43   45 1    
    88   45   46 1    
    89   45   49 1    
    90   45  107 1    
    91   46   47 1    
    92   46  108 1    
    93   46  109 1    
    94   47   48 1    
    95   48  110 1    
    96   48  111 1    
    97   49   50 am   BACKBONE|DICT|INTERRES
    98   49  112 1    
    99   50   51 2    
   100   50   52 1    
   101   52   53 1    
   102   52   54 1    
   103   52  113 1    
   104   53  114 1    
   105   53  115 1    
   106   53  116 1    
   107   54   55 am   BACKBONE|DICT|INTERRES
   108   54  117 1    
   109   55   56 2    
   110   55   57 1    
   111   57   58 1    
   112   57   59 1    
   113   57  118 1    
   114   58  119 1    
   115   58  120 1    
   116   58  121 1    
   117   59   60 am   BACKBONE|DICT|INTERRES
   118   59  122 1    
   119   60   61 2    
   120   60   62 1    
   121   62   63 1    
   122   62   64 1    
   123   62  123 1    
   124   63  124 1    
   125   63  125 1    
   126   63  126 1    
   127   64   65 am   BACKBONE|DICT|INTERRES
   128   64  127 1    
   129   65   66 2    
@<TRIPOS>SUBSTRUCTURE
     1 UNK         1 GROUP             0       ****    0 ROOT    
