@<TRIPOS>MOLECULE
3R134
127   129    1
SMALL
USER_CHARGES


@<TRIPOS>ATOM
      1 CA         32.7180  -46.0176  -50.9087 C.3       0 UNK        -0.1968 
      2 C          34.0483  -45.7743  -51.6077 C.2       0 UNK         0.4852 
      3 O          34.8273  -44.9304  -51.1617 O.2       0 UNK        -0.5359 
      4 N          34.2999  -46.5075  -52.6968 N.am      1 UNK        -0.4300 
      5 CA         35.5290  -46.4737  -53.4931 C.3       1 UNK         0.0863 
      6 C6         35.2550  -46.0935  -54.9782 C.3       11 UNK        -0.0953 
      7 S7         34.3772  -44.5046  -55.1555 S.3       11 UNK        -0.2369 
      8 C8         32.7010  -45.1072  -55.5256 C.3       11 UNK         0.0226 
      9 C9         31.6486  -44.0617  -55.2011 C.ar      11 UNK        -0.0699 
     10 C10        31.2121  -43.9080  -53.8831 C.ar      11 UNK        -0.0804 
     11 C11        30.1958  -43.0011  -53.5703 C.ar      11 UNK        -0.0871 
     12 C12        29.6413  -42.2180  -54.5853 C.ar      11 UNK        -0.1008 
     13 C13        30.0804  -42.3509  -55.9055 C.ar      11 UNK        -0.0735 
     14 C14        31.0852  -43.2750  -56.2100 C.ar      11 UNK        -0.0945 
     15 C15        29.4521  -41.5048  -57.0023 C.3       11 UNK         0.0169 
     16 S16        28.2486  -42.4519  -57.9846 S.3       11 UNK        -0.2669 
     17 C17        27.0379  -42.9593  -56.7073 C.3       11 UNK        -0.0850 
     18 CA         25.8283  -43.7414  -57.2814 C.3       10 UNK         0.0855 
     19 C          24.8019  -42.8010  -57.9794 C.2       10 UNK         0.5543 
     20 N          24.5551  -42.9282  -59.2776 N.am      10 UNK        -0.7343 
     21 O          24.2102  -41.9471  -57.3235 O.2       10 UNK        -0.5027 
     22 N          26.2899  -44.8839  -58.0800 N.am      10 UNK        -0.4495 
     23 C          25.5678  -45.9522  -58.4303 C.2       10 UNK         0.4903 
     24 O          24.3974  -46.1439  -58.1025 O.2       10 UNK        -0.4860 
     25 CA         26.3037  -46.9787  -59.2947 C.3       9 UNK         0.0227 
     26 CB         26.5617  -46.3730  -60.6948 C.3       9 UNK        -0.1964 
     27 N          27.5228  -47.3996  -58.5896 N.am      9 UNK        -0.4231 
     28 C          28.5762  -48.0730  -59.0777 C.2       9 UNK         0.5014 
     29 O          28.7554  -48.3386  -60.2667 O.2       9 UNK        -0.5270 
     30 CA         29.5857  -48.6001  -58.0430 C.3       8 UNK         0.0284 
     31 CB         30.4144  -47.4612  -57.4217 C.3       8 UNK        -0.1977 
     32 N          28.9234  -49.3681  -56.9881 N.am      8 UNK        -0.4342 
     33 C          28.2431  -50.5102  -57.1698 C.2       8 UNK         0.5039 
     34 O          28.1954  -51.1244  -58.2362 O.2       8 UNK        -0.5547 
     35 CA         27.4549  -51.0445  -55.9636 C.3       7 UNK         0.0281 
     36 CB         28.3485  -51.8988  -55.0496 C.3       7 UNK        -0.1963 
     37 N          26.8411  -49.9569  -55.1972 N.am      7 UNK        -0.4444 
     38 C          25.7377  -49.2970  -55.5784 C.2       7 UNK         0.5104 
     39 O          25.0787  -49.5886  -56.5763 O.2       7 UNK        -0.5100 
     40 CA         25.2822  -48.1147  -54.7023 C.3       6 UNK         0.0396 
     41 CB         24.1807  -48.5639  -53.7293 C.3       6 UNK        -0.1801 
     42 N          26.3694  -47.4901  -53.9429 N.am      6 UNK        -0.4747 
     43 C          27.3330  -46.7319  -54.4850 C.2       6 UNK         0.5012 
     44 O          27.4196  -46.4955  -55.6900 O.2       6 UNK        -0.5003 
     45 CA         28.4229  -46.2209  -53.5202 C.3       5 UNK         0.0782 
     46 C46        27.8995  -45.0390  -52.6610 C.3       11 UNK        -0.0868 
     47 S47        29.1312  -44.4583  -51.4391 S.3       11 UNK        -0.2515 
     48 C48        29.6847  -42.8696  -52.1418 C.3       11 UNK         0.0199 
     49 N          29.0008  -47.2910  -52.6934 N.am      5 UNK        -0.4607 
     50 C          29.5479  -48.4217  -53.1525 C.2       4 UNK         0.5031 
     51 O          29.5171  -48.7622  -54.3350 O.2       4 UNK        -0.5119 
     52 CA         30.1988  -49.3462  -52.1088 C.3       4 UNK         0.0263 
     53 CB         29.1231  -50.1897  -51.4045 C.3       4 UNK        -0.1967 
     54 N          31.1952  -50.2454  -52.7016 N.am      4 UNK        -0.4237 
     55 C          32.3138  -49.8475  -53.3214 C.2       3 UNK         0.4908 
     56 O          32.6784  -48.6686  -53.3971 O.2       3 UNK        -0.5102 
     57 CA         33.1570  -50.9499  -53.9793 C.3       3 UNK         0.0241 
     58 CB         32.4679  -51.4869  -55.2469 C.3       3 UNK        -0.1971 
     59 N          34.4431  -50.3694  -54.3453 N.am      3 UNK        -0.4139 
     60 C          35.6559  -50.8951  -54.1403 C.2       2 UNK         0.5016 
     61 O          35.8511  -52.0391  -53.7282 O.2       2 UNK        -0.5319 
     62 CA         36.8603  -49.9746  -54.4331 C.3       2 UNK         0.0286 
     63 CB         37.4902  -50.3263  -55.7907 C.3       2 UNK        -0.1963 
     64 N          36.4962  -48.5506  -54.4256 N.am      2 UNK        -0.4790 
     65 C          36.1960  -47.8545  -53.3179 C.2       1 UNK         0.5024 
     66 O          36.3844  -48.2949  -52.1816 O.2       1 UNK        -0.4888 
     67 H67        32.8752  -46.5730  -49.9847 H         1 UNK         0.0892 
     68 H68        32.2417  -45.0694  -50.6606 H         1 UNK         0.0892 
     69 H69        32.0304  -46.5839  -51.5366 H         1 UNK         0.0892 
     70 H70        33.6409  -47.2404  -52.9617 H         1 UNK         0.3107 
     71 H71        36.2269  -45.7416  -53.0821 H         1 UNK         0.0773 
     72 H72        34.6771  -46.8683  -55.4857 H         1 UNK         0.0680 
     73 H73        36.1963  -46.0026  -55.5232 H         1 UNK         0.0680 
     74 H74        32.4924  -46.0088  -54.9467 H         1 UNK         0.0650 
     75 H75        32.6476  -45.3976  -56.5758 H         1 UNK         0.0650 
     76 H76        31.6450  -44.5170  -53.1032 H         1 UNK         0.1397 
     77 H77        28.8563  -41.5115  -54.3519 H         1 UNK         0.1363 
     78 H78        31.4151  -43.3906  -57.2334 H         1 UNK         0.1355 
     79 H79        28.9604  -40.6266  -56.5808 H         1 UNK         0.0707 
     80 H80        30.2329  -41.1288  -57.6650 H         1 UNK         0.0707 
     81 H81        27.5530  -43.5989  -55.9890 H         1 UNK         0.1034 
     82 H82        26.7110  -42.0834  -56.1434 H         1 UNK         0.1034 
     83 H83        25.2926  -44.1622  -56.4281 H         1 UNK         0.0482 
     84 H84        23.8853  -42.3172  -59.7175 H         1 UNK         0.3460 
     85 H85        25.0416  -43.6226  -59.8201 H         1 UNK         0.3460 
     86 H86        27.2431  -44.8158  -58.4060 H         1 UNK         0.2989 
     87 H87        25.6613  -47.8548  -59.3996 H         1 UNK         0.0559 
     88 H88        27.3587  -45.6290  -60.6790 H         1 UNK         0.0848 
     89 H89        25.6668  -45.8865  -61.0856 H         1 UNK         0.0848 
     90 H90        26.8321  -47.1392  -61.4205 H         1 UNK         0.0848 
     91 H91        27.5063  -47.2197  -57.5874 H         1 UNK         0.3144 
     92 H92        30.2729  -49.2745  -58.5581 H         1 UNK         0.0727 
     93 H93        31.1649  -47.8504  -56.7330 H         1 UNK         0.0790 
     94 H94        29.7950  -46.7550  -56.8686 H         1 UNK         0.0790 
     95 H95        30.9411  -46.8977  -58.1927 H         1 UNK         0.0790 
     96 H96        28.9893  -48.9957  -56.0413 H         1 UNK         0.3215 
     97 H97        26.6593  -51.6878  -56.3467 H         1 UNK         0.0863 
     98 H98        27.7817  -52.3149  -54.2168 H         1 UNK         0.0808 
     99 H99        29.1789  -51.3263  -54.6395 H         1 UNK         0.0808 
    100 H100       28.7758  -52.7373  -55.6012 H         1 UNK         0.0808 
    101 H101       27.3570  -49.6108  -54.4009 H         1 UNK         0.3118 
    102 H102       24.8581  -47.3600  -55.3688 H         1 UNK         0.0546 
    103 H103       24.5438  -49.3116  -53.0232 H         1 UNK         0.0828 
    104 H104       23.3415  -49.0060  -54.2683 H         1 UNK         0.0828 
    105 H105       23.7877  -47.7228  -53.1580 H         1 UNK         0.0828 
    106 H106       26.3887  -47.6570  -52.9468 H         1 UNK         0.3005 
    107 H107       29.2314  -45.8472  -54.1513 H         1 UNK         0.1257 
    108 H108       27.0070  -45.3330  -52.1057 H         1 UNK         0.0775 
    109 H109       27.5957  -44.2062  -53.2981 H         1 UNK         0.0775 
    110 H110       28.8592  -42.1581  -52.0862 H         1 UNK         0.0840 
    111 H111       30.4815  -42.4650  -51.5163 H         1 UNK         0.0840 
    112 H112       29.0543  -47.0868  -51.7057 H         1 UNK         0.2987 
    113 H113       30.7065  -48.7266  -51.3671 H         1 UNK         0.0785 
    114 H114       29.5593  -50.8239  -50.6325 H         1 UNK         0.0798 
    115 H115       28.5895  -50.8336  -52.1047 H         1 UNK         0.0798 
    116 H116       28.3816  -49.5564  -50.9156 H         1 UNK         0.0798 
    117 H117       30.9678  -51.2285  -52.7014 H         1 UNK         0.3079 
    118 H118       33.2986  -51.7581  -53.2586 H         1 UNK         0.0794 
    119 H119       31.5354  -51.9965  -55.0040 H         1 UNK         0.0786 
    120 H120       33.1007  -52.2069  -55.7661 H         1 UNK         0.0786 
    121 H121       32.2289  -50.6851  -55.9475 H         1 UNK         0.0786 
    122 H122       34.3875  -49.3976  -54.6156 H         1 UNK         0.3032 
    123 H123       37.6034  -50.1506  -53.6517 H         1 UNK         0.1094 
    124 H124       38.3786  -49.7247  -55.9841 H         1 UNK         0.0794 
    125 H125       37.7978  -51.3727  -55.8176 H         1 UNK         0.0794 
    126 H126       36.7918  -50.1714  -56.6142 H         1 UNK         0.0794 
    127 H127       36.3548  -48.1164  -55.3267 H         1 UNK         0.3016 
@<TRIPOS>BOND
     1    1    2 1    
     2    1   67 1    
     3    1   68 1    
     4    1   69 1    
     5    2    3 2    
     6    2    4 am   BACKBONE|DICT|INTERRES
     7    4    5 1    
     8    4   70 1    
     9    5    6 1    
    10    5   65 1    
    11    5   71 1    
    12    6    7 1    
    13    6   72 1    
    14    6   73 1    
    15    7    8 1    
    16    8    9 1    
    17    8   74 1    
    18    8   75 1    
    19    9   10 ar   
    20    9   14 ar   
    21   10   11 ar   
    22   10   76 1    
    23   11   12 ar   
    24   11   48 1    
    25   12   13 ar   
    26   12   77 1    
    27   13   14 ar   
    28   13   15 1    
    29   14   78 1    
    30   15   16 1    
    31   15   79 1    
    32   15   80 1    
    33   16   17 1    
    34   17   18 1    
    35   17   81 1    
    36   17   82 1    
    37   18   19 1    
    38   18   22 1    
    39   18   83 1    
    40   19   20 am   BACKBONE|DICT|INTERRES
    41   19   21 2    
    42   20   84 1    
    43   20   85 1    
    44   22   23 am   BACKBONE|DICT|INTERRES
    45   22   86 1    
    46   23   24 2    
    47   23   25 1    
    48   25   26 1    
    49   25   27 1    
    50   25   87 1    
    51   26   88 1    
    52   26   89 1    
    53   26   90 1    
    54   27   28 am   BACKBONE|DICT|INTERRES
    55   27   91 1    
    56   28   29 2    
    57   28   30 1    
    58   30   31 1    
    59   30   32 1    
    60   30   92 1    
    61   31   93 1    
    62   31   94 1    
    63   31   95 1    
    64   32   33 am   BACKBONE|DICT|INTERRES
    65   32   96 1    
    66   33   34 2    
    67   33   35 1    
    68   35   36 1    
    69   35   37 1    
    70   35   97 1    
    71   36   98 1    
    72   36   99 1    
    73   36  100 1    
    74   37   38 am   BACKBONE|DICT|INTERRES
    75   37  101 1    
    76   38   39 2    
    77   38   40 1    
    78   40   41 1    
    79   40   42 1    
    80   40  102 1    
    81   41  103 1    
    82   41  104 1    
    83   41  105 1    
    84   42   43 am   BACKBONE|DICT|INTERRES
    85   42  106 1    
    86   43   44 2    
    87   43   45 1    
    88   45   46 1    
    89   45   49 1    
    90   45  107 1    
    91   46   47 1    
    92   46  108 1    
    93   46  109 1    
    94   47   48 1    
    95   48  110 1    
    96   48  111 1    
    97   49   50 am   BACKBONE|DICT|INTERRES
    98   49  112 1    
    99   50   51 2    
   100   50   52 1    
   101   52   53 1    
   102   52   54 1    
   103   52  113 1    
   104   53  114 1    
   105   53  115 1    
   106   53  116 1    
   107   54   55 am   BACKBONE|DICT|INTERRES
   108   54  117 1    
   109   55   56 2    
   110   55   57 1    
   111   57   58 1    
   112   57   59 1    
   113   57  118 1    
   114   58  119 1    
   115   58  120 1    
   116   58  121 1    
   117   59   60 am   BACKBONE|DICT|INTERRES
   118   59  122 1    
   119   60   61 2    
   120   60   62 1    
   121   62   63 1    
   122   62   64 1    
   123   62  123 1    
   124   63  124 1    
   125   63  125 1    
   126   63  126 1    
   127   64   65 am   BACKBONE|DICT|INTERRES
   128   64  127 1    
   129   65   66 2    
@<TRIPOS>SUBSTRUCTURE
     1 UNK         1 GROUP             0       ****    0 ROOT    
