@<TRIPOS>MOLECULE
3R134
127   129    1
SMALL
USER_CHARGES


@<TRIPOS>ATOM
      1 CA         30.2869  -45.3645  -48.1914 C.3       0 UNK        -0.1968 
      2 C          31.7022  -45.4903  -48.7360 C.2       0 UNK         0.4852 
      3 O          32.6547  -45.5326  -47.9562 O.2       0 UNK        -0.5359 
      4 N          31.8449  -45.5512  -50.0679 N.am      1 UNK        -0.4300 
      5 CA         33.1309  -45.6780  -50.7701 C.3       1 UNK         0.0863 
      6 C6         33.0091  -45.2690  -52.2664 C.3       11 UNK        -0.0953 
      7 S7         34.2406  -44.0199  -52.7610 S.3       11 UNK        -0.2369 
      8 C8         33.1764  -42.6509  -53.3279 C.3       11 UNK         0.0226 
      9 C9         32.3517  -43.0318  -54.5519 C.ar      11 UNK        -0.0699 
     10 C10        32.9882  -43.3180  -55.7637 C.ar      11 UNK        -0.0804 
     11 C11        32.2462  -43.6949  -56.8865 C.ar      11 UNK        -0.0871 
     12 C12        30.8537  -43.7640  -56.7901 C.ar      11 UNK        -0.1008 
     13 C13        30.1999  -43.4756  -55.5901 C.ar      11 UNK        -0.0735 
     14 C14        30.9562  -43.1051  -54.4734 C.ar      11 UNK        -0.0945 
     15 C15        28.6856  -43.6102  -55.4871 C.3       11 UNK         0.0169 
     16 S16        27.8031  -42.1892  -56.2066 S.3       11 UNK        -0.2669 
     17 C17        27.5805  -42.7002  -57.9497 C.3       11 UNK        -0.0850 
     18 CA         26.1601  -43.2542  -58.2389 C.3       10 UNK         0.0855 
     19 C          25.9065  -43.4214  -59.7679 C.2       10 UNK         0.5543 
     20 N          25.4690  -44.5748  -60.2609 N.am      10 UNK        -0.7343 
     21 O          26.1013  -42.4751  -60.5267 O.2       10 UNK        -0.5027 
     22 N          25.8864  -44.4691  -57.4549 N.am      10 UNK        -0.4495 
     23 C          24.6753  -44.8440  -57.0291 C.2       10 UNK         0.4903 
     24 O          23.6535  -44.1748  -57.1926 O.2       10 UNK        -0.4860 
     25 CA         24.6030  -46.2015  -56.3035 C.3       9 UNK         0.0227 
     26 CB         23.1589  -46.7267  -56.1596 C.3       9 UNK        -0.1964 
     27 N          25.4657  -47.2357  -56.8920 N.am      9 UNK        -0.4231 
     28 C          25.4322  -47.7070  -58.1505 C.2       9 UNK         0.5014 
     29 O          24.7104  -47.2347  -59.0302 O.2       9 UNK        -0.5270 
     30 CA         26.3542  -48.8912  -58.5164 C.3       8 UNK         0.0284 
     31 CB         27.3801  -48.4726  -59.5835 C.3       8 UNK        -0.1977 
     32 N          27.0629  -49.4806  -57.3772 N.am      8 UNK        -0.4342 
     33 C          26.5015  -50.2086  -56.4015 C.2       8 UNK         0.5039 
     34 O          25.3219  -50.5614  -56.4031 O.2       8 UNK        -0.5547 
     35 CA         27.3910  -50.5546  -55.1913 C.3       7 UNK         0.0281 
     36 CB         28.0288  -51.9416  -55.3647 C.3       7 UNK        -0.1963 
     37 N          28.4344  -49.5544  -54.9272 N.am      7 UNK        -0.4444 
     38 C          28.1983  -48.2704  -54.6145 C.2       7 UNK         0.5104 
     39 O          27.0725  -47.7884  -54.4960 O.2       7 UNK        -0.5100 
     40 CA         29.4235  -47.3607  -54.4564 C.3       6 UNK         0.0396 
     41 CB         30.0248  -47.5159  -53.0514 C.3       6 UNK        -0.1801 
     42 N          30.4331  -47.6321  -55.4838 N.am      6 UNK        -0.4747 
     43 C          30.3044  -47.2835  -56.7758 C.2       6 UNK         0.5012 
     44 O          29.3433  -46.6502  -57.2134 O.2       6 UNK        -0.5003 
     45 CA         31.3918  -47.7854  -57.7546 C.3       5 UNK         0.0782 
     46 C46        32.5908  -46.8085  -57.8677 C.3       11 UNK        -0.0868 
     47 S47        32.2853  -45.4724  -59.0697 S.3       11 UNK        -0.2515 
     48 C48        32.9596  -44.0164  -58.1969 C.3       11 UNK         0.0199 
     49 N          31.8496  -49.1360  -57.4214 N.am      5 UNK        -0.4607 
     50 C          31.0876  -50.2371  -57.4528 C.2       4 UNK         0.5031 
     51 O          29.9201  -50.2468  -57.8399 O.2       4 UNK        -0.5119 
     52 CA         31.7208  -51.5330  -56.9102 C.3       4 UNK         0.0263 
     53 CB         32.3278  -52.3532  -58.0591 C.3       4 UNK        -0.1967 
     54 N          32.7400  -51.3071  -55.8757 N.am      4 UNK        -0.4237 
     55 C          32.5213  -50.6805  -54.7111 C.2       3 UNK         0.4908 
     56 O          31.4211  -50.2358  -54.3699 O.2       3 UNK        -0.5102 
     57 CA         33.7461  -50.4521  -53.8187 C.3       3 UNK         0.0241 
     58 CB         34.6927  -49.4058  -54.4398 C.3       3 UNK        -0.1971 
     59 N          33.3000  -49.9808  -52.5114 N.am      3 UNK        -0.4139 
     60 C          33.9544  -50.1444  -51.3569 C.2       2 UNK         0.5016 
     61 O          35.0287  -50.7415  -51.2566 O.2       2 UNK        -0.5319 
     62 CA         33.2923  -49.5127  -50.1158 C.3       2 UNK         0.0286 
     63 CB         34.1324  -49.6796  -48.8310 C.3       2 UNK        -0.1963 
     64 N          32.9366  -48.0997  -50.3208 N.am      2 UNK        -0.4790 
     65 C          33.7648  -47.0817  -50.6193 C.2       1 UNK         0.5024 
     66 O          34.9799  -47.2065  -50.7753 O.2       1 UNK        -0.4888 
     67 H67        30.1896  -44.4485  -47.6092 H         1 UNK         0.0892 
     68 H68        30.0594  -46.2078  -47.5399 H         1 UNK         0.0892 
     69 H69        29.5424  -45.3404  -48.9870 H         1 UNK         0.0892 
     70 H70        31.0242  -45.4907  -50.6526 H         1 UNK         0.3107 
     71 H71        33.8172  -44.9882  -50.2733 H         1 UNK         0.0773 
     72 H72        32.0159  -44.8710  -52.4745 H         1 UNK         0.0680 
     73 H73        33.1201  -46.1193  -52.9428 H         1 UNK         0.0680 
     74 H74        32.5339  -42.3340  -52.5048 H         1 UNK         0.0650 
     75 H75        33.8054  -41.7945  -53.5745 H         1 UNK         0.0650 
     76 H76        34.0666  -43.2602  -55.8228 H         1 UNK         0.1397 
     77 H77        30.2825  -44.0737  -57.6509 H         1 UNK         0.1363 
     78 H78        30.4585  -42.8875  -53.5384 H         1 UNK         0.1355 
     79 H79        28.3907  -43.7028  -54.4409 H         1 UNK         0.0707 
     80 H80        28.3581  -44.5303  -55.9701 H         1 UNK         0.0707 
     81 H81        28.3293  -43.4348  -58.2390 H         1 UNK         0.1034 
     82 H82        27.7785  -41.8189  -58.5630 H         1 UNK         0.1034 
     83 H83        25.4540  -42.4848  -57.9207 H         1 UNK         0.0482 
     84 H84        25.2605  -45.3633  -59.6591 H         1 UNK         0.3460 
     85 H85        25.3088  -44.6514  -61.2525 H         1 UNK         0.3460 
     86 H86        26.6656  -45.0938  -57.3083 H         1 UNK         0.2989 
     87 H87        24.9884  -46.0245  -55.2984 H         1 UNK         0.0559 
     88 H88        23.1335  -47.6723  -55.6179 H         1 UNK         0.0848 
     89 H89        22.6879  -46.8839  -57.1306 H         1 UNK         0.0848 
     90 H90        22.5373  -46.0215  -55.6065 H         1 UNK         0.0848 
     91 H91        26.1170  -47.6596  -56.2379 H         1 UNK         0.3144 
     92 H92        25.7174  -49.6664  -58.9475 H         1 UNK         0.0727 
     93 H93        28.0170  -49.3088  -59.8734 H         1 UNK         0.0790 
     94 H94        28.0238  -47.6666  -59.2324 H         1 UNK         0.0790 
     95 H95        26.8821  -48.1178  -60.4869 H         1 UNK         0.0790 
     96 H96        28.0640  -49.3239  -57.3339 H         1 UNK         0.3215 
     97 H97        26.7458  -50.5856  -54.3106 H         1 UNK         0.0863 
     98 H98        28.6955  -52.1850  -54.5371 H         1 UNK         0.0808 
     99 H99        28.5970  -52.0107  -56.2915 H         1 UNK         0.0808 
    100 H100       27.2612  -52.7157  -55.4023 H         1 UNK         0.0808 
    101 H101       29.3989  -49.8647  -54.9697 H         1 UNK         0.3118 
    102 H102       29.0973  -46.3257  -54.5653 H         1 UNK         0.0546 
    103 H103       29.3290  -47.1517  -52.2945 H         1 UNK         0.0828 
    104 H104       30.9430  -46.9454  -52.9519 H         1 UNK         0.0828 
    105 H105       30.2460  -48.5546  -52.8080 H         1 UNK         0.0828 
    106 H106       31.1998  -48.2342  -55.2146 H         1 UNK         0.3005 
    107 H107       30.9147  -47.8623  -58.7349 H         1 UNK         0.1257 
    108 H108       33.4766  -47.3355  -58.2263 H         1 UNK         0.0775 
    109 H109       32.8675  -46.4029  -56.8924 H         1 UNK         0.0775 
    110 H110       34.0246  -44.1807  -58.0251 H         1 UNK         0.0840 
    111 H111       32.8839  -43.1493  -58.8542 H         1 UNK         0.0840 
    112 H112       32.8024  -49.2248  -57.1026 H         1 UNK         0.2987 
    113 H113       30.9233  -52.1227  -56.4561 H         1 UNK         0.0785 
    114 H114       33.1562  -51.8292  -58.5376 H         1 UNK         0.0798 
    115 H115       31.5820  -52.5558  -58.8294 H         1 UNK         0.0798 
    116 H116       32.6964  -53.3172  -57.7079 H         1 UNK         0.0798 
    117 H117       33.6717  -51.6399  -56.0807 H         1 UNK         0.3079 
    118 H118       34.2665  -51.4056  -53.7058 H         1 UNK         0.0794 
    119 H119       34.1939  -48.4463  -54.5845 H         1 UNK         0.0786 
    120 H120       35.0696  -49.7316  -55.4098 H         1 UNK         0.0786 
    121 H121       35.5608  -49.2325  -53.8033 H         1 UNK         0.0786 
    122 H122       32.3866  -49.5465  -52.5151 H         1 UNK         0.3032 
    123 H123       32.3566  -50.0540  -49.9642 H         1 UNK         0.1094 
    124 H124       35.1075  -49.1991  -48.9168 H         1 UNK         0.0794 
    125 H125       33.6239  -49.2522  -47.9667 H         1 UNK         0.0794 
    126 H126       34.3086  -50.7339  -48.6142 H         1 UNK         0.0794 
    127 H127       31.9577  -47.8770  -50.2089 H         1 UNK         0.3016 
@<TRIPOS>BOND
     1    1    2 1    
     2    1   67 1    
     3    1   68 1    
     4    1   69 1    
     5    2    3 2    
     6    2    4 am   BACKBONE|DICT|INTERRES
     7    4    5 1    
     8    4   70 1    
     9    5    6 1    
    10    5   65 1    
    11    5   71 1    
    12    6    7 1    
    13    6   72 1    
    14    6   73 1    
    15    7    8 1    
    16    8    9 1    
    17    8   74 1    
    18    8   75 1    
    19    9   10 ar   
    20    9   14 ar   
    21   10   11 ar   
    22   10   76 1    
    23   11   12 ar   
    24   11   48 1    
    25   12   13 ar   
    26   12   77 1    
    27   13   14 ar   
    28   13   15 1    
    29   14   78 1    
    30   15   16 1    
    31   15   79 1    
    32   15   80 1    
    33   16   17 1    
    34   17   18 1    
    35   17   81 1    
    36   17   82 1    
    37   18   19 1    
    38   18   22 1    
    39   18   83 1    
    40   19   20 am   BACKBONE|DICT|INTERRES
    41   19   21 2    
    42   20   84 1    
    43   20   85 1    
    44   22   23 am   BACKBONE|DICT|INTERRES
    45   22   86 1    
    46   23   24 2    
    47   23   25 1    
    48   25   26 1    
    49   25   27 1    
    50   25   87 1    
    51   26   88 1    
    52   26   89 1    
    53   26   90 1    
    54   27   28 am   BACKBONE|DICT|INTERRES
    55   27   91 1    
    56   28   29 2    
    57   28   30 1    
    58   30   31 1    
    59   30   32 1    
    60   30   92 1    
    61   31   93 1    
    62   31   94 1    
    63   31   95 1    
    64   32   33 am   BACKBONE|DICT|INTERRES
    65   32   96 1    
    66   33   34 2    
    67   33   35 1    
    68   35   36 1    
    69   35   37 1    
    70   35   97 1    
    71   36   98 1    
    72   36   99 1    
    73   36  100 1    
    74   37   38 am   BACKBONE|DICT|INTERRES
    75   37  101 1    
    76   38   39 2    
    77   38   40 1    
    78   40   41 1    
    79   40   42 1    
    80   40  102 1    
    81   41  103 1    
    82   41  104 1    
    83   41  105 1    
    84   42   43 am   BACKBONE|DICT|INTERRES
    85   42  106 1    
    86   43   44 2    
    87   43   45 1    
    88   45   46 1    
    89   45   49 1    
    90   45  107 1    
    91   46   47 1    
    92   46  108 1    
    93   46  109 1    
    94   47   48 1    
    95   48  110 1    
    96   48  111 1    
    97   49   50 am   BACKBONE|DICT|INTERRES
    98   49  112 1    
    99   50   51 2    
   100   50   52 1    
   101   52   53 1    
   102   52   54 1    
   103   52  113 1    
   104   53  114 1    
   105   53  115 1    
   106   53  116 1    
   107   54   55 am   BACKBONE|DICT|INTERRES
   108   54  117 1    
   109   55   56 2    
   110   55   57 1    
   111   57   58 1    
   112   57   59 1    
   113   57  118 1    
   114   58  119 1    
   115   58  120 1    
   116   58  121 1    
   117   59   60 am   BACKBONE|DICT|INTERRES
   118   59  122 1    
   119   60   61 2    
   120   60   62 1    
   121   62   63 1    
   122   62   64 1    
   123   62  123 1    
   124   63  124 1    
   125   63  125 1    
   126   63  126 1    
   127   64   65 am   BACKBONE|DICT|INTERRES
   128   64  127 1    
   129   65   66 2    
@<TRIPOS>SUBSTRUCTURE
     1 UNK         1 GROUP             0       ****    0 ROOT    
