@<TRIPOS>MOLECULE
3R134
127   129    1
SMALL
USER_CHARGES


@<TRIPOS>ATOM
      1 CA         36.5479  -44.3905  -48.6300 C.3       0 UNK        -0.1968 
      2 C          36.7174  -44.7233  -50.1054 C.2       0 UNK         0.4852 
      3 O          37.8425  -44.7127  -50.6082 O.2       0 UNK        -0.5359 
      4 N          35.6097  -45.0100  -50.8020 N.am      1 UNK        -0.4300 
      5 CA         35.5894  -45.4203  -52.2089 C.3       1 UNK         0.0863 
      6 C6         34.1836  -45.2083  -52.8266 C.3       11 UNK        -0.0953 
      7 S7         34.2371  -45.0225  -54.6417 S.3       11 UNK        -0.2369 
      8 C8         32.6755  -45.8082  -55.1442 C.3       11 UNK         0.0226 
      9 C9         31.4776  -44.8974  -54.9220 C.ar      11 UNK        -0.0699 
     10 C10        30.8473  -44.8384  -53.6757 C.ar      11 UNK        -0.0804 
     11 C11        29.7230  -44.0270  -53.4834 C.ar      11 UNK        -0.0871 
     12 C12        29.2205  -43.2880  -54.5598 C.ar      11 UNK        -0.1008 
     13 C13        29.8433  -43.3350  -55.8114 C.ar      11 UNK        -0.0735 
     14 C14        30.9832  -44.1283  -55.9776 C.ar      11 UNK        -0.0945 
     15 C15        29.2880  -42.5215  -56.9756 C.3       11 UNK         0.0169 
     16 S16        29.0305  -43.5507  -58.4557 S.3       11 UNK        -0.2669 
     17 C17        27.7188  -42.6383  -59.3352 C.3       11 UNK        -0.0850 
     18 CA         26.2928  -43.0615  -58.8928 C.3       10 UNK         0.0855 
     19 C          25.2191  -42.3130  -59.7286 C.2       10 UNK         0.5543 
     20 N          24.7802  -41.1478  -59.2728 N.am      10 UNK        -0.7343 
     21 O          24.8192  -42.7543  -60.8045 O.2       10 UNK        -0.5027 
     22 N          26.1286  -44.5221  -58.9132 N.am      10 UNK        -0.4495 
     23 C          25.0880  -45.2018  -58.4228 C.2       10 UNK         0.4903 
     24 O          24.1045  -44.6707  -57.9057 O.2       10 UNK        -0.4860 
     25 CA         25.1604  -46.7378  -58.4757 C.3       9 UNK         0.0227 
     26 CB         24.6309  -47.2828  -59.8162 C.3       9 UNK        -0.1964 
     27 N          26.4758  -47.2982  -58.1335 N.am      9 UNK        -0.4231 
     28 C          27.6227  -47.2823  -58.8298 C.2       9 UNK         0.5014 
     29 O          27.7597  -46.7174  -59.9157 O.2       9 UNK        -0.5270 
     30 CA         28.8240  -48.0250  -58.2119 C.3       8 UNK         0.0284 
     31 CB         29.6655  -47.0802  -57.3408 C.3       8 UNK        -0.1977 
     32 N          28.4348  -49.1895  -57.4136 N.am      8 UNK        -0.4342 
     33 C          27.8907  -50.3112  -57.9073 C.2       8 UNK         0.5039 
     34 O          27.7040  -50.5173  -59.1070 O.2       8 UNK        -0.5547 
     35 CA         27.4647  -51.3745  -56.8844 C.3       7 UNK         0.0281 
     36 CB         28.6669  -52.2258  -56.4416 C.3       7 UNK        -0.1963 
     37 N          26.8273  -50.7619  -55.7169 N.am      7 UNK        -0.4444 
     38 C          25.5515  -50.3499  -55.6852 C.2       7 UNK         0.5104 
     39 O          24.7565  -50.5099  -56.6112 O.2       7 UNK        -0.5100 
     40 CA         25.0773  -49.6298  -54.4092 C.3       6 UNK         0.0396 
     41 CB         24.4560  -50.6351  -53.4268 C.3       6 UNK        -0.1801 
     42 N          26.1415  -48.8849  -53.7310 N.am      6 UNK        -0.4747 
     43 C          26.7278  -47.7794  -54.2150 C.2       6 UNK         0.5012 
     44 O          26.4099  -47.2501  -55.2783 O.2       6 UNK        -0.5003 
     45 CA         27.9045  -47.2063  -53.3999 C.3       5 UNK         0.0782 
     46 C46        27.3950  -46.1744  -52.3643 C.3       11 UNK        -0.0868 
     47 S47        28.7293  -45.5062  -51.3143 S.3       11 UNK        -0.2515 
     48 C48        29.0746  -43.9023  -52.1078 C.3       11 UNK         0.0199 
     49 N          28.7280  -48.2599  -52.7899 N.am      5 UNK        -0.4607 
     50 C          29.4027  -49.1862  -53.4785 C.2       4 UNK         0.5031 
     51 O          29.3387  -49.3074  -54.7042 O.2       4 UNK        -0.5119 
     52 CA         30.2428  -50.1805  -52.6651 C.3       4 UNK         0.0263 
     53 CB         29.4513  -51.4768  -52.4272 C.3       4 UNK        -0.1967 
     54 N          31.4808  -50.4918  -53.3789 N.am      4 UNK        -0.4237 
     55 C          32.5121  -49.6452  -53.4798 C.2       3 UNK         0.4908 
     56 O          32.5946  -48.5854  -52.8537 O.2       3 UNK        -0.5102 
     57 CA         33.6137  -50.0384  -54.4711 C.3       3 UNK         0.0241 
     58 CB         33.1257  -49.8715  -55.9227 C.3       3 UNK        -0.1971 
     59 N          34.7788  -49.1825  -54.2619 N.am      3 UNK        -0.4139 
     60 C          36.0494  -49.5918  -54.1847 C.2       2 UNK         0.5016 
     61 O          36.3977  -50.7649  -54.3282 O.2       2 UNK        -0.5319 
     62 CA         37.1279  -48.5216  -53.9192 C.3       2 UNK         0.0286 
     63 CB         38.0414  -48.3629  -55.1467 C.3       2 UNK        -0.1963 
     64 N          36.5961  -47.2016  -53.5595 N.am      2 UNK        -0.4790 
     65 C          36.0805  -46.8775  -52.3666 C.2       1 UNK         0.5024 
     66 O          35.9705  -47.6775  -51.4341 O.2       1 UNK        -0.4888 
     67 H67        37.1022  -45.1026  -48.0192 H         1 UNK         0.0892 
     68 H68        36.9324  -43.3920  -48.4237 H         1 UNK         0.0892 
     69 H69        35.5029  -44.4213  -48.3218 H         1 UNK         0.0892 
     70 H70        34.7201  -45.0381  -50.3251 H         1 UNK         0.3107 
     71 H71        36.2948  -44.7728  -52.7354 H         1 UNK         0.0773 
     72 H72        33.5087  -46.0174  -52.5422 H         1 UNK         0.0680 
     73 H73        33.7346  -44.2927  -52.4378 H         1 UNK         0.0680 
     74 H74        32.5353  -46.7466  -54.6119 H         1 UNK         0.0650 
     75 H75        32.7478  -46.0742  -56.1998 H         1 UNK         0.0650 
     76 H76        31.2321  -45.4242  -52.8527 H         1 UNK         0.1397 
     77 H77        28.3501  -42.6615  -54.4196 H         1 UNK         0.1363 
     78 H78        31.4717  -44.1659  -56.9416 H         1 UNK         0.1355 
     79 H79        28.3418  -42.0571  -56.6937 H         1 UNK         0.0707 
     80 H80        29.9771  -41.7105  -57.2146 H         1 UNK         0.0707 
     81 H81        27.8678  -41.5664  -59.1913 H         1 UNK         0.1034 
     82 H82        27.8517  -42.8199  -60.4036 H         1 UNK         0.1034 
     83 H83        26.1683  -42.7590  -57.8511 H         1 UNK         0.0482 
     84 H84        24.0958  -40.6383  -59.8099 H         1 UNK         0.3460 
     85 H85        25.1082  -40.7719  -58.3966 H         1 UNK         0.3460 
     86 H86        26.8822  -45.0548  -59.3360 H         1 UNK         0.2989 
     87 H87        24.4921  -47.1042  -57.6946 H         1 UNK         0.0559 
     88 H88        23.6050  -46.9550  -59.9889 H         1 UNK         0.0848 
     89 H89        24.6304  -48.3729  -59.8275 H         1 UNK         0.0848 
     90 H90        25.2251  -46.9377  -60.6626 H         1 UNK         0.0848 
     91 H91        26.5265  -47.6661  -57.1878 H         1 UNK         0.3144 
     92 H92        29.4512  -48.3808  -59.0318 H         1 UNK         0.0727 
     93 H93        29.0708  -46.6164  -56.5528 H         1 UNK         0.0790 
     94 H94        30.0904  -46.2781  -57.9440 H         1 UNK         0.0790 
     95 H95        30.4975  -47.6031  -56.8686 H         1 UNK         0.0790 
     96 H96        28.6291  -49.1463  -56.4150 H         1 UNK         0.3215 
     97 H97        26.7452  -52.0379  -57.3701 H         1 UNK         0.0863 
     98 H98        28.3664  -52.9991  -55.7345 H         1 UNK         0.0808 
     99 H99        29.4460  -51.6249  -55.9727 H         1 UNK         0.0808 
    100 H100       29.1192  -52.7289  -57.2973 H         1 UNK         0.0808 
    101 H101       27.4272  -50.5372  -54.9356 H         1 UNK         0.3118 
    102 H102       24.3025  -48.9179  -54.7021 H         1 UNK         0.0546 
    103 H103       25.1861  -51.3672  -53.0795 H         1 UNK         0.0828 
    104 H104       23.6411  -51.1869  -53.8977 H         1 UNK         0.0828 
    105 H105       24.0407  -50.1326  -52.5532 H         1 UNK         0.0828 
    106 H106       26.4682  -49.2520  -52.8486 H         1 UNK         0.3005 
    107 H107       28.5444  -46.6776  -54.1102 H         1 UNK         0.1257 
    108 H108       26.6557  -46.6297  -51.7024 H         1 UNK         0.0775 
    109 H109       26.8843  -45.3498  -52.8659 H         1 UNK         0.0775 
    110 H110       28.1488  -43.3272  -52.1601 H         1 UNK         0.0840 
    111 H111       29.7473  -43.3358  -51.4626 H         1 UNK         0.0840 
    112 H112       28.8325  -48.2121  -51.7865 H         1 UNK         0.2987 
    113 H113       30.4929  -49.7367  -51.6988 H         1 UNK         0.0785 
    114 H114       28.5305  -51.2783  -51.8769 H         1 UNK         0.0798 
    115 H115       30.0291  -52.1904  -51.8395 H         1 UNK         0.0798 
    116 H116       29.1735  -51.9624  -53.3633 H         1 UNK         0.0798 
    117 H117       31.4735  -51.3223  -53.9525 H         1 UNK         0.3079 
    118 H118       33.8713  -51.0841  -54.2896 H         1 UNK         0.0794 
    119 H119       33.9037  -50.1485  -56.6343 H         1 UNK         0.0786 
    120 H120       32.8317  -48.8428  -56.1341 H         1 UNK         0.0786 
    121 H121       32.2612  -50.5041  -56.1282 H         1 UNK         0.0786 
    122 H122       34.5690  -48.2196  -54.0371 H         1 UNK         0.3032 
    123 H123       37.7349  -48.8854  -53.0867 H         1 UNK         0.1094 
    124 H124       37.4905  -48.0004  -56.0156 H         1 UNK         0.0794 
    125 H125       38.8560  -47.6658  -54.9489 H         1 UNK         0.0794 
    126 H126       38.4955  -49.3155  -55.4238 H         1 UNK         0.0794 
    127 H127       36.6221  -46.4937  -54.2810 H         1 UNK         0.3016 
@<TRIPOS>BOND
     1    1    2 1    
     2    1   67 1    
     3    1   68 1    
     4    1   69 1    
     5    2    3 2    
     6    2    4 am   BACKBONE|DICT|INTERRES
     7    4    5 1    
     8    4   70 1    
     9    5    6 1    
    10    5   65 1    
    11    5   71 1    
    12    6    7 1    
    13    6   72 1    
    14    6   73 1    
    15    7    8 1    
    16    8    9 1    
    17    8   74 1    
    18    8   75 1    
    19    9   10 ar   
    20    9   14 ar   
    21   10   11 ar   
    22   10   76 1    
    23   11   12 ar   
    24   11   48 1    
    25   12   13 ar   
    26   12   77 1    
    27   13   14 ar   
    28   13   15 1    
    29   14   78 1    
    30   15   16 1    
    31   15   79 1    
    32   15   80 1    
    33   16   17 1    
    34   17   18 1    
    35   17   81 1    
    36   17   82 1    
    37   18   19 1    
    38   18   22 1    
    39   18   83 1    
    40   19   20 am   BACKBONE|DICT|INTERRES
    41   19   21 2    
    42   20   84 1    
    43   20   85 1    
    44   22   23 am   BACKBONE|DICT|INTERRES
    45   22   86 1    
    46   23   24 2    
    47   23   25 1    
    48   25   26 1    
    49   25   27 1    
    50   25   87 1    
    51   26   88 1    
    52   26   89 1    
    53   26   90 1    
    54   27   28 am   BACKBONE|DICT|INTERRES
    55   27   91 1    
    56   28   29 2    
    57   28   30 1    
    58   30   31 1    
    59   30   32 1    
    60   30   92 1    
    61   31   93 1    
    62   31   94 1    
    63   31   95 1    
    64   32   33 am   BACKBONE|DICT|INTERRES
    65   32   96 1    
    66   33   34 2    
    67   33   35 1    
    68   35   36 1    
    69   35   37 1    
    70   35   97 1    
    71   36   98 1    
    72   36   99 1    
    73   36  100 1    
    74   37   38 am   BACKBONE|DICT|INTERRES
    75   37  101 1    
    76   38   39 2    
    77   38   40 1    
    78   40   41 1    
    79   40   42 1    
    80   40  102 1    
    81   41  103 1    
    82   41  104 1    
    83   41  105 1    
    84   42   43 am   BACKBONE|DICT|INTERRES
    85   42  106 1    
    86   43   44 2    
    87   43   45 1    
    88   45   46 1    
    89   45   49 1    
    90   45  107 1    
    91   46   47 1    
    92   46  108 1    
    93   46  109 1    
    94   47   48 1    
    95   48  110 1    
    96   48  111 1    
    97   49   50 am   BACKBONE|DICT|INTERRES
    98   49  112 1    
    99   50   51 2    
   100   50   52 1    
   101   52   53 1    
   102   52   54 1    
   103   52  113 1    
   104   53  114 1    
   105   53  115 1    
   106   53  116 1    
   107   54   55 am   BACKBONE|DICT|INTERRES
   108   54  117 1    
   109   55   56 2    
   110   55   57 1    
   111   57   58 1    
   112   57   59 1    
   113   57  118 1    
   114   58  119 1    
   115   58  120 1    
   116   58  121 1    
   117   59   60 am   BACKBONE|DICT|INTERRES
   118   59  122 1    
   119   60   61 2    
   120   60   62 1    
   121   62   63 1    
   122   62   64 1    
   123   62  123 1    
   124   63  124 1    
   125   63  125 1    
   126   63  126 1    
   127   64   65 am   BACKBONE|DICT|INTERRES
   128   64  127 1    
   129   65   66 2    
@<TRIPOS>SUBSTRUCTURE
     1 UNK         1 GROUP             0       ****    0 ROOT    
