@<TRIPOS>MOLECULE
3R134
127   129    1
SMALL
USER_CHARGES


@<TRIPOS>ATOM
      1 CA         30.2892  -46.1128  -52.4933 C.3       0 UNK        -0.1968 
      2 C          31.7079  -46.0848  -51.9474 C.2       0 UNK         0.4852 
      3 O          32.0773  -46.9643  -51.1694 O.2       0 UNK        -0.5359 
      4 N          32.5070  -45.0837  -52.3440 N.am      1 UNK        -0.4300 
      5 CA         33.8677  -44.8295  -51.8442 C.3       1 UNK         0.0863 
      6 C6         34.4701  -43.5133  -52.3955 C.3       11 UNK        -0.0953 
      7 S7         33.4643  -42.0433  -51.9985 S.3       11 UNK        -0.2369 
      8 C8         32.9592  -41.4704  -53.6515 C.3       11 UNK         0.0226 
      9 C9         31.8815  -42.3616  -54.2484 C.ar      11 UNK        -0.0699 
     10 C10        32.2199  -43.3810  -55.1446 C.ar      11 UNK        -0.0804 
     11 C11        31.2295  -44.2150  -55.6692 C.ar      11 UNK        -0.0871 
     12 C12        29.8956  -44.0098  -55.3132 C.ar      11 UNK        -0.1008 
     13 C13        29.5411  -42.9769  -54.4425 C.ar      11 UNK        -0.0735 
     14 C14        30.5406  -42.1620  -53.9038 C.ar      11 UNK        -0.0945 
     15 C15        28.0823  -42.7652  -54.0644 C.3       11 UNK         0.0169 
     16 S16        27.3847  -41.2290  -54.7558 S.3       11 UNK        -0.2669 
     17 C17        27.5144  -41.4621  -56.5655 C.3       11 UNK        -0.0850 
     18 CA         26.1961  -41.9983  -57.2008 C.3       10 UNK         0.0855 
     19 C          26.1037  -41.7327  -58.7373 C.2       10 UNK         0.5543 
     20 N          25.5001  -42.6124  -59.5276 N.am      10 UNK        -0.7343 
     21 O          26.5478  -40.6932  -59.2190 O.2       10 UNK        -0.5027 
     22 N          25.8996  -43.3823  -56.7847 N.am      10 UNK        -0.4495 
     23 C          26.6078  -44.4717  -57.1137 C.2       10 UNK         0.4903 
     24 O          27.5947  -44.4512  -57.8516 O.2       10 UNK        -0.4860 
     25 CA         26.1835  -45.8060  -56.4718 C.3       9 UNK         0.0227 
     26 CB         24.7424  -45.8211  -55.9121 C.3       9 UNK        -0.1964 
     27 N          26.4148  -46.9364  -57.3738 N.am      9 UNK        -0.4231 
     28 C          25.8123  -47.1853  -58.5468 C.2       9 UNK         0.5014 
     29 O          24.9286  -46.4811  -59.0382 O.2       9 UNK        -0.5270 
     30 CA         26.2654  -48.4519  -59.2925 C.3       8 UNK         0.0284 
     31 CB         27.4849  -48.1496  -60.1793 C.3       8 UNK        -0.1977 
     32 N          26.5957  -49.5278  -58.3541 N.am      8 UNK        -0.4342 
     33 C          25.7149  -50.4204  -57.8789 C.2       8 UNK         0.5039 
     34 O          24.5549  -50.5199  -58.2807 O.2       8 UNK        -0.5547 
     35 CA         26.2005  -51.3534  -56.7518 C.3       7 UNK         0.0281 
     36 CB         26.8349  -52.6251  -57.3377 C.3       7 UNK        -0.1963 
     37 N          27.1568  -50.7081  -55.8490 N.am      7 UNK        -0.4444 
     38 C          26.8670  -49.6829  -55.0330 C.2       7 UNK         0.5104 
     39 O          25.7268  -49.2595  -54.8484 O.2       7 UNK        -0.5100 
     40 CA         28.0470  -48.9836  -54.3284 C.3       6 UNK         0.0396 
     41 CB         28.1128  -49.4098  -52.8543 C.3       6 UNK        -0.1801 
     42 N          29.3522  -49.2161  -54.9599 N.am      6 UNK        -0.4747 
     43 C          29.6853  -48.8745  -56.2165 C.2       6 UNK         0.5012 
     44 O          28.9074  -48.3065  -56.9838 O.2       6 UNK        -0.5003 
     45 CA         31.0890  -49.2726  -56.7290 C.3       5 UNK         0.0782 
     46 C46        31.9873  -48.0586  -57.0782 C.3       11 UNK        -0.0868 
     47 S47        32.1644  -46.8145  -55.7497 S.3       11 UNK        -0.2515 
     48 C48        31.5866  -45.3319  -56.6328 C.3       11 UNK         0.0199 
     49 N          31.7775  -50.2273  -55.8551 N.am      5 UNK        -0.4607 
     50 C          31.4466  -51.5213  -55.7359 C.2       4 UNK         0.5031 
     51 O          30.5068  -52.0403  -56.3390 O.2       4 UNK        -0.5119 
     52 CA         32.2866  -52.3719  -54.7681 C.3       4 UNK         0.0263 
     53 CB         33.4214  -53.0801  -55.5243 C.3       4 UNK        -0.1967 
     54 N          32.8545  -51.5987  -53.6607 N.am      4 UNK        -0.4237 
     55 C          32.1488  -51.0234  -52.6797 C.2       3 UNK         0.4908 
     56 O          30.9229  -51.0849  -52.5988 O.2       3 UNK        -0.5102 
     57 CA         32.9336  -50.2178  -51.6325 C.3       3 UNK         0.0241 
     58 CB         33.7524  -51.1348  -50.7020 C.3       3 UNK        -0.1971 
     59 N          33.7522  -49.1424  -52.2098 N.am      3 UNK        -0.4139 
     60 C          34.8368  -49.2351  -52.9969 C.2       2 UNK         0.5016 
     61 O          35.3309  -50.3087  -53.3462 O.2       2 UNK        -0.5319 
     62 CA         35.4620  -47.9274  -53.5216 C.3       2 UNK         0.0286 
     63 CB         35.6615  -47.9836  -55.0466 C.3       2 UNK        -0.1963 
     64 N          34.6680  -46.7401  -53.1852 N.am      2 UNK        -0.4790 
     65 C          34.8503  -45.9963  -52.0841 C.2       1 UNK         0.5024 
     66 O          35.7407  -46.2097  -51.2604 O.2       1 UNK        -0.4888 
     67 H67        30.2482  -46.6687  -53.4291 H         1 UNK         0.0892 
     68 H68        29.6188  -46.5922  -51.7809 H         1 UNK         0.0892 
     69 H69        29.9165  -45.1053  -52.6669 H         1 UNK         0.0892 
     70 H70        32.1483  -44.3916  -52.9897 H         1 UNK         0.3107 
     71 H71        33.7798  -44.7232  -50.7608 H         1 UNK         0.0773 
     72 H72        34.6244  -43.5809  -53.4731 H         1 UNK         0.0680 
     73 H73        35.4592  -43.3433  -51.9653 H         1 UNK         0.0680 
     74 H74        33.8295  -41.4183  -54.3075 H         1 UNK         0.0650 
     75 H75        32.5821  -40.4501  -53.5676 H         1 UNK         0.0650 
     76 H76        33.2524  -43.5351  -55.4273 H         1 UNK         0.1397 
     77 H77        29.1339  -44.6597  -55.7179 H         1 UNK         0.1363 
     78 H78        30.2730  -41.3703  -53.2169 H         1 UNK         0.1355 
     79 H79        27.4707  -43.6122  -54.3757 H         1 UNK         0.0707 
     80 H80        28.0026  -42.7234  -52.9773 H         1 UNK         0.0707 
     81 H81        28.3616  -42.1017  -56.8138 H         1 UNK         0.1034 
     82 H82        27.7659  -40.4819  -56.9740 H         1 UNK         0.1034 
     83 H83        25.3801  -41.4010  -56.7922 H         1 UNK         0.0482 
     84 H84        25.1436  -43.4767  -59.1502 H         1 UNK         0.3460 
     85 H85        25.4328  -42.4255  -60.5155 H         1 UNK         0.3460 
     86 H86        25.0935  -43.4929  -56.1874 H         1 UNK         0.2989 
     87 H87        26.8603  -45.9605  -55.6308 H         1 UNK         0.0559 
     88 H88        24.6276  -45.1197  -55.0850 H         1 UNK         0.0848 
     89 H89        24.4856  -46.8070  -55.5236 H         1 UNK         0.0848 
     90 H90        24.0034  -45.5655  -56.6724 H         1 UNK         0.0848 
     91 H91        27.2179  -47.5133  -57.1387 H         1 UNK         0.3144 
     92 H92        25.4473  -48.7718  -59.9416 H         1 UNK         0.0727 
     93 H93        27.7976  -49.0322  -60.7375 H         1 UNK         0.0790 
     94 H94        28.3381  -47.8011  -59.5959 H         1 UNK         0.0790 
     95 H95        27.2509  -47.3715  -60.9072 H         1 UNK         0.0790 
     96 H96        27.5174  -49.4865  -57.9357 H         1 UNK         0.3215 
     97 H97        25.3266  -51.6442  -56.1645 H         1 UNK         0.0863 
     98 H98        27.1068  -53.3308  -56.5524 H         1 UNK         0.0808 
     99 H99        27.7347  -52.4016  -57.9126 H         1 UNK         0.0808 
    100 H100       26.1393  -53.1363  -58.0047 H         1 UNK         0.0808 
    101 H101       28.1199  -51.0106  -55.9093 H         1 UNK         0.3118 
    102 H102       27.8570  -47.9091  -54.3636 H         1 UNK         0.0546 
    103 H103       28.2583  -50.4861  -52.7538 H         1 UNK         0.0828 
    104 H104       27.1885  -49.1569  -52.3332 H         1 UNK         0.0828 
    105 H105       28.9279  -48.9138  -52.3279 H         1 UNK         0.0828 
    106 H106       30.0378  -49.7075  -54.4011 H         1 UNK         0.3005 
    107 H107       30.9056  -49.7962  -57.6708 H         1 UNK         0.1257 
    108 H108       32.9843  -48.4016  -57.3590 H         1 UNK         0.0775 
    109 H109       31.5964  -47.5779  -57.9765 H         1 UNK         0.0775 
    110 H110       32.3594  -44.9981  -57.3270 H         1 UNK         0.0840 
    111 H111       30.7136  -45.5805  -57.2397 H         1 UNK         0.0840 
    112 H112       32.5529  -49.8701  -55.3176 H         1 UNK         0.2987 
    113 H113       31.6274  -53.1325  -54.3441 H         1 UNK         0.0785 
    114 H114       33.9743  -53.7534  -54.8689 H         1 UNK         0.0798 
    115 H115       34.1304  -52.3677  -55.9484 H         1 UNK         0.0798 
    116 H116       33.0287  -53.6803  -56.3465 H         1 UNK         0.0798 
    117 H117       33.8603  -51.4400  -53.6607 H         1 UNK         0.3079 
    118 H118       32.1908  -49.7141  -51.0115 H         1 UNK         0.0794 
    119 H119       33.1067  -51.8653  -50.2128 H         1 UNK         0.0786 
    120 H120       34.2441  -50.5607  -49.9167 H         1 UNK         0.0786 
    121 H121       34.5203  -51.6923  -51.2386 H         1 UNK         0.0786 
    122 H122       33.4101  -48.2114  -51.9889 H         1 UNK         0.3032 
    123 H123       36.4504  -47.8479  -53.0632 H         1 UNK         0.1094 
    124 H124       34.7304  -48.1914  -55.5714 H         1 UNK         0.0794 
    125 H125       36.0642  -47.0466  -55.4316 H         1 UNK         0.0794 
    126 H126       36.3655  -48.7712  -55.3186 H         1 UNK         0.0794 
    127 H127       33.9051  -46.5088  -53.8084 H         1 UNK         0.3016 
@<TRIPOS>BOND
     1    1    2 1    
     2    1   67 1    
     3    1   68 1    
     4    1   69 1    
     5    2    3 2    
     6    2    4 am   BACKBONE|DICT|INTERRES
     7    4    5 1    
     8    4   70 1    
     9    5    6 1    
    10    5   65 1    
    11    5   71 1    
    12    6    7 1    
    13    6   72 1    
    14    6   73 1    
    15    7    8 1    
    16    8    9 1    
    17    8   74 1    
    18    8   75 1    
    19    9   10 ar   
    20    9   14 ar   
    21   10   11 ar   
    22   10   76 1    
    23   11   12 ar   
    24   11   48 1    
    25   12   13 ar   
    26   12   77 1    
    27   13   14 ar   
    28   13   15 1    
    29   14   78 1    
    30   15   16 1    
    31   15   79 1    
    32   15   80 1    
    33   16   17 1    
    34   17   18 1    
    35   17   81 1    
    36   17   82 1    
    37   18   19 1    
    38   18   22 1    
    39   18   83 1    
    40   19   20 am   BACKBONE|DICT|INTERRES
    41   19   21 2    
    42   20   84 1    
    43   20   85 1    
    44   22   23 am   BACKBONE|DICT|INTERRES
    45   22   86 1    
    46   23   24 2    
    47   23   25 1    
    48   25   26 1    
    49   25   27 1    
    50   25   87 1    
    51   26   88 1    
    52   26   89 1    
    53   26   90 1    
    54   27   28 am   BACKBONE|DICT|INTERRES
    55   27   91 1    
    56   28   29 2    
    57   28   30 1    
    58   30   31 1    
    59   30   32 1    
    60   30   92 1    
    61   31   93 1    
    62   31   94 1    
    63   31   95 1    
    64   32   33 am   BACKBONE|DICT|INTERRES
    65   32   96 1    
    66   33   34 2    
    67   33   35 1    
    68   35   36 1    
    69   35   37 1    
    70   35   97 1    
    71   36   98 1    
    72   36   99 1    
    73   36  100 1    
    74   37   38 am   BACKBONE|DICT|INTERRES
    75   37  101 1    
    76   38   39 2    
    77   38   40 1    
    78   40   41 1    
    79   40   42 1    
    80   40  102 1    
    81   41  103 1    
    82   41  104 1    
    83   41  105 1    
    84   42   43 am   BACKBONE|DICT|INTERRES
    85   42  106 1    
    86   43   44 2    
    87   43   45 1    
    88   45   46 1    
    89   45   49 1    
    90   45  107 1    
    91   46   47 1    
    92   46  108 1    
    93   46  109 1    
    94   47   48 1    
    95   48  110 1    
    96   48  111 1    
    97   49   50 am   BACKBONE|DICT|INTERRES
    98   49  112 1    
    99   50   51 2    
   100   50   52 1    
   101   52   53 1    
   102   52   54 1    
   103   52  113 1    
   104   53  114 1    
   105   53  115 1    
   106   53  116 1    
   107   54   55 am   BACKBONE|DICT|INTERRES
   108   54  117 1    
   109   55   56 2    
   110   55   57 1    
   111   57   58 1    
   112   57   59 1    
   113   57  118 1    
   114   58  119 1    
   115   58  120 1    
   116   58  121 1    
   117   59   60 am   BACKBONE|DICT|INTERRES
   118   59  122 1    
   119   60   61 2    
   120   60   62 1    
   121   62   63 1    
   122   62   64 1    
   123   62  123 1    
   124   63  124 1    
   125   63  125 1    
   126   63  126 1    
   127   64   65 am   BACKBONE|DICT|INTERRES
   128   64  127 1    
   129   65   66 2    
@<TRIPOS>SUBSTRUCTURE
     1 UNK         1 GROUP             0       ****    0 ROOT    
