@<TRIPOS>MOLECULE
3R134
127   129    1
SMALL
USER_CHARGES


@<TRIPOS>ATOM
      1 CA         36.8115  -43.5241  -50.0575 C.3       0 UNK        -0.1968 
      2 C          36.6540  -44.0404  -51.4805 C.2       0 UNK         0.4852 
      3 O          37.3112  -43.5323  -52.3903 O.2       0 UNK        -0.5359 
      4 N          35.7918  -45.0435  -51.6769 N.am      1 UNK        -0.4300 
      5 CA         35.5172  -45.6785  -52.9619 C.3       1 UNK         0.0863 
      6 C6         34.3968  -44.9437  -53.7377 C.3       11 UNK        -0.0953 
      7 S7         34.2505  -45.4962  -55.4712 S.3       11 UNK        -0.2369 
      8 C8         32.5278  -46.0799  -55.5447 C.3       11 UNK         0.0226 
      9 C9         31.5287  -44.9374  -55.4363 C.ar      11 UNK        -0.0699 
     10 C10        30.9243  -44.6482  -54.2118 C.ar      11 UNK        -0.0804 
     11 C11        29.9967  -43.6073  -54.0990 C.ar      11 UNK        -0.0871 
     12 C12        29.7013  -42.8353  -55.2262 C.ar      11 UNK        -0.1008 
     13 C13        30.2984  -43.1103  -56.4635 C.ar      11 UNK        -0.0735 
     14 C14        31.2065  -44.1699  -56.5590 C.ar      11 UNK        -0.0945 
     15 C15        30.0429  -42.2366  -57.6909 C.3       11 UNK         0.0169 
     16 S16        28.3602  -41.5362  -57.7975 S.3       11 UNK        -0.2669 
     17 C17        27.3719  -42.9653  -58.3607 C.3       11 UNK        -0.0850 
     18 CA         26.4856  -43.6108  -57.2512 C.3       10 UNK         0.0855 
     19 C          25.2102  -42.7970  -56.8627 C.2       10 UNK         0.5543 
     20 N          25.2523  -41.4740  -56.9252 N.am      10 UNK        -0.7343 
     21 O          24.1907  -43.3517  -56.4550 O.2       10 UNK        -0.5027 
     22 N          26.1852  -45.0170  -57.5569 N.am      10 UNK        -0.4495 
     23 C          25.4924  -45.4642  -58.6138 C.2       10 UNK         0.4903 
     24 O          25.0398  -44.7390  -59.5019 O.2       10 UNK        -0.4860 
     25 CA         25.2932  -46.9898  -58.6865 C.3       9 UNK         0.0227 
     26 CB         24.6914  -47.4675  -60.0252 C.3       9 UNK        -0.1964 
     27 N          26.5246  -47.7200  -58.3690 N.am      9 UNK        -0.4231 
     28 C          27.6964  -47.6893  -59.0235 C.2       9 UNK         0.5014 
     29 O          27.8907  -47.0638  -60.0666 O.2       9 UNK        -0.5270 
     30 CA         28.8653  -48.4796  -58.4030 C.3       8 UNK         0.0284 
     31 CB         29.8691  -47.5187  -57.7466 C.3       8 UNK        -0.1977 
     32 N          28.4401  -49.4750  -57.4133 N.am      8 UNK        -0.4342 
     33 C          27.7971  -50.6140  -57.7099 C.2       8 UNK         0.5039 
     34 O          27.5722  -50.9925  -58.8601 O.2       8 UNK        -0.5547 
     35 CA         27.2750  -51.4504  -56.5317 C.3       7 UNK         0.0281 
     36 CB         28.3518  -52.4088  -56.0072 C.3       7 UNK        -0.1963 
     37 N          26.7841  -50.6132  -55.4353 N.am      7 UNK        -0.4444 
     38 C          25.5908  -50.0042  -55.4337 C.2       7 UNK         0.5104 
     39 O          24.7764  -50.0850  -56.3528 O.2       7 UNK        -0.5100 
     40 CA         25.2567  -49.1436  -54.2050 C.3       6 UNK         0.0396 
     41 CB         24.7059  -50.0163  -53.0661 C.3       6 UNK        -0.1801 
     42 N          26.4014  -48.3691  -53.7208 N.am      6 UNK        -0.4747 
     43 C          26.9515  -47.3411  -54.3825 C.2       6 UNK         0.5012 
     44 O          26.5686  -46.9483  -55.4840 O.2       6 UNK        -0.5003 
     45 CA         28.1388  -46.6378  -53.7040 C.3       5 UNK         0.0782 
     46 C46        27.6189  -45.5353  -52.7432 C.3       11 UNK        -0.0868 
     47 S47        28.9264  -44.7359  -51.7511 S.3       11 UNK        -0.2515 
     48 C48        29.3365  -43.2733  -52.7632 C.3       11 UNK         0.0199 
     49 N          29.0778  -47.5644  -53.0561 N.am      5 UNK        -0.4607 
     50 C          29.7656  -48.5339  -53.6735 C.2       4 UNK         0.5031 
     51 O          29.5660  -48.8719  -54.8410 O.2       4 UNK        -0.5119 
     52 CA         30.8331  -49.2402  -52.8203 C.3       4 UNK         0.0263 
     53 CB         30.2628  -50.5078  -52.1533 C.3       4 UNK        -0.1967 
     54 N          32.0788  -49.5066  -53.5555 N.am      4 UNK        -0.4237 
     55 C          32.3184  -50.4204  -54.5130 C.2       3 UNK         0.4908 
     56 O          31.5065  -51.2592  -54.8974 O.2       3 UNK        -0.5102 
     57 CA         33.7206  -50.4319  -55.1547 C.3       3 UNK         0.0241 
     58 CB         33.6909  -49.7530  -56.5339 C.3       3 UNK        -0.1971 
     59 N          34.7586  -49.8080  -54.3319 N.am      3 UNK        -0.4139 
     60 C          35.2111  -50.2967  -53.1687 C.2       2 UNK         0.5016 
     61 O          34.8646  -51.3828  -52.7028 O.2       2 UNK        -0.5319 
     62 CA         36.2051  -49.4267  -52.3760 C.3       2 UNK         0.0286 
     63 CB         37.6282  -49.9972  -52.4942 C.3       2 UNK        -0.1963 
     64 N          36.2309  -48.0039  -52.7450 N.am      2 UNK        -0.4790 
     65 C          35.2004  -47.1503  -52.6585 C.2       1 UNK         0.5024 
     66 O          34.0612  -47.4808  -52.3210 O.2       1 UNK        -0.4888 
     67 H67        36.1708  -44.0579  -49.3558 H         1 UNK         0.0892 
     68 H68        37.8440  -43.6392  -49.7286 H         1 UNK         0.0892 
     69 H69        36.5552  -42.4660  -50.0122 H         1 UNK         0.0892 
     70 H70        35.2922  -45.4417  -50.8924 H         1 UNK         0.3107 
     71 H71        36.4243  -45.6500  -53.5704 H         1 UNK         0.0773 
     72 H72        34.6098  -43.8742  -53.7676 H         1 UNK         0.0680 
     73 H73        33.4467  -45.0384  -53.2140 H         1 UNK         0.0680 
     74 H74        32.3571  -46.8218  -54.7635 H         1 UNK         0.0650 
     75 H75        32.3809  -46.5928  -56.4946 H         1 UNK         0.0650 
     76 H76        31.1727  -45.2424  -53.3439 H         1 UNK         0.1397 
     77 H77        29.0139  -42.0061  -55.1333 H         1 UNK         0.1363 
     78 H78        31.6860  -44.3853  -57.5042 H         1 UNK         0.1355 
     79 H79        30.7522  -41.4085  -57.6637 H         1 UNK         0.0707 
     80 H80        30.2558  -42.7885  -58.6079 H         1 UNK         0.0707 
     81 H81        28.0567  -43.7127  -58.7649 H         1 UNK         0.1034 
     82 H82        26.7573  -42.6522  -59.2066 H         1 UNK         0.1034 
     83 H83        27.0791  -43.6597  -56.3379 H         1 UNK         0.0482 
     84 H84        26.0966  -41.0113  -57.2307 H         1 UNK         0.3460 
     85 H85        24.4426  -40.9355  -56.6605 H         1 UNK         0.3460 
     86 H86        26.4435  -45.6923  -56.8410 H         1 UNK         0.2989 
     87 H87        24.5824  -47.2420  -57.8980 H         1 UNK         0.0559 
     88 H88        25.3241  -47.2036  -60.8730 H         1 UNK         0.0848 
     89 H89        23.7144  -47.0141  -60.1968 H         1 UNK         0.0848 
     90 H90        24.5526  -48.5486  -60.0333 H         1 UNK         0.0848 
     91 H91        26.5066  -48.2236  -57.4923 H         1 UNK         0.3144 
     92 H92        29.3744  -49.0032  -59.2147 H         1 UNK         0.0727 
     93 H93        30.7228  -48.0632  -57.3434 H         1 UNK         0.0790 
     94 H94        29.4145  -46.9550  -56.9306 H         1 UNK         0.0790 
     95 H95        30.2529  -46.7962  -58.4680 H         1 UNK         0.0790 
     96 H96        28.6708  -49.2741  -56.4411 H         1 UNK         0.3215 
     97 H97        26.4458  -52.0564  -56.9044 H         1 UNK         0.0863 
     98 H98        29.1771  -51.8642  -55.5537 H         1 UNK         0.0808 
     99 H99        28.7630  -53.0187  -56.8128 H         1 UNK         0.0808 
    100 H100       27.9474  -53.0889  -55.2575 H         1 UNK         0.0808 
    101 H101       27.4112  -50.4532  -54.6600 H         1 UNK         0.3118 
    102 H102       24.4747  -48.4393  -54.4978 H         1 UNK         0.0546 
    103 H103       24.3833  -49.4085  -52.2206 H         1 UNK         0.0828 
    104 H104       25.4475  -50.7294  -52.7041 H         1 UNK         0.0828 
    105 H105       23.8392  -50.5893  -53.3991 H         1 UNK         0.0828 
    106 H106       26.7872  -48.6246  -52.8230 H         1 UNK         0.3005 
    107 H107       28.6895  -46.1506  -54.5101 H         1 UNK         0.1257 
    108 H108       26.9005  -45.9549  -52.0359 H         1 UNK         0.0775 
    109 H109       27.0763  -44.7694  -53.3012 H         1 UNK         0.0775 
    110 H110       28.4276  -42.6895  -52.9175 H         1 UNK         0.0840 
    111 H111       30.0166  -42.6381  -52.1943 H         1 UNK         0.0840 
    112 H112       29.2864  -47.3552  -52.0901 H         1 UNK         0.2987 
    113 H113       31.1252  -48.5546  -52.0229 H         1 UNK         0.0785 
    114 H114       31.0232  -51.0239  -51.5670 H         1 UNK         0.0798 
    115 H115       29.4459  -50.2565  -51.4759 H         1 UNK         0.0798 
    116 H116       29.8663  -51.2130  -52.8844 H         1 UNK         0.0798 
    117 H117       32.8409  -48.8822  -53.3140 H         1 UNK         0.3079 
    118 H118       33.9960  -51.4789  -55.2999 H         1 UNK         0.0794 
    119 H119       32.9199  -50.1911  -57.1698 H         1 UNK         0.0786 
    120 H120       34.6420  -49.8693  -57.0538 H         1 UNK         0.0786 
    121 H121       33.4803  -48.6876  -56.4551 H         1 UNK         0.0786 
    122 H122       35.1168  -48.9165  -54.6417 H         1 UNK         0.3032 
    123 H123       35.9001  -49.4848  -51.3286 H         1 UNK         0.1094 
    124 H124       38.0024  -49.9395  -53.5172 H         1 UNK         0.0794 
    125 H125       38.3263  -49.4636  -51.8489 H         1 UNK         0.0794 
    126 H126       37.6559  -51.0466  -52.1965 H         1 UNK         0.0794 
    127 H127       37.1311  -47.6366  -53.0215 H         1 UNK         0.3016 
@<TRIPOS>BOND
     1    1    2 1    
     2    1   67 1    
     3    1   68 1    
     4    1   69 1    
     5    2    3 2    
     6    2    4 am   BACKBONE|DICT|INTERRES
     7    4    5 1    
     8    4   70 1    
     9    5    6 1    
    10    5   65 1    
    11    5   71 1    
    12    6    7 1    
    13    6   72 1    
    14    6   73 1    
    15    7    8 1    
    16    8    9 1    
    17    8   74 1    
    18    8   75 1    
    19    9   10 ar   
    20    9   14 ar   
    21   10   11 ar   
    22   10   76 1    
    23   11   12 ar   
    24   11   48 1    
    25   12   13 ar   
    26   12   77 1    
    27   13   14 ar   
    28   13   15 1    
    29   14   78 1    
    30   15   16 1    
    31   15   79 1    
    32   15   80 1    
    33   16   17 1    
    34   17   18 1    
    35   17   81 1    
    36   17   82 1    
    37   18   19 1    
    38   18   22 1    
    39   18   83 1    
    40   19   20 am   BACKBONE|DICT|INTERRES
    41   19   21 2    
    42   20   84 1    
    43   20   85 1    
    44   22   23 am   BACKBONE|DICT|INTERRES
    45   22   86 1    
    46   23   24 2    
    47   23   25 1    
    48   25   26 1    
    49   25   27 1    
    50   25   87 1    
    51   26   88 1    
    52   26   89 1    
    53   26   90 1    
    54   27   28 am   BACKBONE|DICT|INTERRES
    55   27   91 1    
    56   28   29 2    
    57   28   30 1    
    58   30   31 1    
    59   30   32 1    
    60   30   92 1    
    61   31   93 1    
    62   31   94 1    
    63   31   95 1    
    64   32   33 am   BACKBONE|DICT|INTERRES
    65   32   96 1    
    66   33   34 2    
    67   33   35 1    
    68   35   36 1    
    69   35   37 1    
    70   35   97 1    
    71   36   98 1    
    72   36   99 1    
    73   36  100 1    
    74   37   38 am   BACKBONE|DICT|INTERRES
    75   37  101 1    
    76   38   39 2    
    77   38   40 1    
    78   40   41 1    
    79   40   42 1    
    80   40  102 1    
    81   41  103 1    
    82   41  104 1    
    83   41  105 1    
    84   42   43 am   BACKBONE|DICT|INTERRES
    85   42  106 1    
    86   43   44 2    
    87   43   45 1    
    88   45   46 1    
    89   45   49 1    
    90   45  107 1    
    91   46   47 1    
    92   46  108 1    
    93   46  109 1    
    94   47   48 1    
    95   48  110 1    
    96   48  111 1    
    97   49   50 am   BACKBONE|DICT|INTERRES
    98   49  112 1    
    99   50   51 2    
   100   50   52 1    
   101   52   53 1    
   102   52   54 1    
   103   52  113 1    
   104   53  114 1    
   105   53  115 1    
   106   53  116 1    
   107   54   55 am   BACKBONE|DICT|INTERRES
   108   54  117 1    
   109   55   56 2    
   110   55   57 1    
   111   57   58 1    
   112   57   59 1    
   113   57  118 1    
   114   58  119 1    
   115   58  120 1    
   116   58  121 1    
   117   59   60 am   BACKBONE|DICT|INTERRES
   118   59  122 1    
   119   60   61 2    
   120   60   62 1    
   121   62   63 1    
   122   62   64 1    
   123   62  123 1    
   124   63  124 1    
   125   63  125 1    
   126   63  126 1    
   127   64   65 am   BACKBONE|DICT|INTERRES
   128   64  127 1    
   129   65   66 2    
@<TRIPOS>SUBSTRUCTURE
     1 UNK         1 GROUP             0       ****    0 ROOT    
