@<TRIPOS>MOLECULE
3R134
127   129    1
SMALL
USER_CHARGES


@<TRIPOS>ATOM
      1 CA         32.5759  -42.7117  -51.9800 C.3       0 UNK        -0.1968 
      2 C          33.6759  -43.7157  -52.2879 C.2       0 UNK         0.4852 
      3 O          34.7361  -43.6814  -51.6626 O.2       0 UNK        -0.5359 
      4 N          33.4232  -44.6159  -53.2451 N.am      1 UNK        -0.4300 
      5 CA         34.3629  -45.6289  -53.7449 C.3       1 UNK         0.0863 
      6 C6         34.0785  -46.0180  -55.2199 C.3       11 UNK        -0.0953 
      7 S7         33.9426  -44.6108  -56.3744 S.3       11 UNK        -0.2369 
      8 C8         32.2314  -44.7822  -56.9772 C.3       11 UNK         0.0226 
      9 C9         31.2428  -44.1260  -56.0272 C.ar      11 UNK        -0.0699 
     10 C10        30.7408  -44.8300  -54.9307 C.ar      11 UNK        -0.0804 
     11 C11        29.8728  -44.2137  -54.0191 C.ar      11 UNK        -0.0871 
     12 C12        29.4653  -42.8974  -54.2590 C.ar      11 UNK        -0.1008 
     13 C13        29.9343  -42.1936  -55.3716 C.ar      11 UNK        -0.0735 
     14 C14        30.8357  -42.8082  -56.2435 C.ar      11 UNK        -0.0945 
     15 C15        29.4844  -40.7618  -55.6200 C.3       11 UNK         0.0169 
     16 S16        27.7461  -40.6665  -56.1542 S.3       11 UNK        -0.2669 
     17 C17        27.7969  -41.4344  -57.8132 C.3       11 UNK        -0.0850 
     18 CA         26.5709  -42.3591  -58.0622 C.3       10 UNK         0.0855 
     19 C          26.4008  -42.7786  -59.5558 C.2       10 UNK         0.5543 
     20 N          25.7870  -43.9178  -59.8536 N.am      10 UNK        -0.7343 
     21 O          26.7955  -42.0476  -60.4614 O.2       10 UNK        -0.5027 
     22 N          26.4853  -43.4689  -57.0977 N.am      10 UNK        -0.4495 
     23 C          27.2939  -44.5360  -57.0271 C.2       10 UNK         0.4903 
     24 O          28.2696  -44.7187  -57.7552 O.2       10 UNK        -0.4860 
     25 CA         26.9313  -45.6060  -55.9766 C.3       9 UNK         0.0227 
     26 CB         26.0243  -45.0854  -54.8398 C.3       9 UNK        -0.1964 
     27 N          26.3455  -46.8179  -56.5660 N.am      9 UNK        -0.4231 
     28 C          25.3445  -46.8990  -57.4587 C.2       9 UNK         0.5014 
     29 O          24.7650  -45.9189  -57.9335 O.2       9 UNK        -0.5270 
     30 CA         24.8863  -48.3156  -57.8680 C.3       8 UNK         0.0284 
     31 CB         24.0753  -48.3230  -59.1821 C.3       8 UNK        -0.1977 
     32 N          25.9642  -49.3117  -57.9257 N.am      8 UNK        -0.4342 
     33 C          27.0635  -49.2995  -58.6940 C.2       8 UNK         0.5039 
     34 O          27.3403  -48.3907  -59.4780 O.2       8 UNK        -0.5547 
     35 CA         28.0087  -50.5151  -58.5602 C.3       7 UNK         0.0281 
     36 CB         29.3458  -50.3101  -59.2972 C.3       7 UNK        -0.1963 
     37 N          28.2843  -50.8533  -57.1598 N.am      7 UNK        -0.4444 
     38 C          27.4642  -51.5475  -56.3552 C.2       7 UNK         0.5104 
     39 O          26.3933  -52.0211  -56.7353 O.2       7 UNK        -0.5100 
     40 CA         27.8548  -51.6867  -54.8700 C.3       6 UNK         0.0396 
     41 CB         28.5384  -53.0401  -54.6225 C.3       6 UNK        -0.1801 
     42 N          28.7234  -50.6151  -54.3770 N.am      6 UNK        -0.4747 
     43 C          28.4389  -49.3025  -54.4003 C.2       6 UNK         0.5012 
     44 O          27.3531  -48.8487  -54.7635 O.2       6 UNK        -0.5003 
     45 CA         29.5705  -48.3233  -54.0184 C.3       5 UNK         0.0782 
     46 C46        29.3112  -47.7452  -52.6066 C.3       11 UNK        -0.0868 
     47 S47        30.3779  -46.3235  -52.1996 S.3       11 UNK        -0.2515 
     48 C48        29.3558  -44.9184  -52.7652 C.3       11 UNK         0.0199 
     49 N          30.9125  -48.9164  -54.1682 N.am      5 UNK        -0.4607 
     50 C          31.4068  -49.3559  -55.3402 C.2       4 UNK         0.5031 
     51 O          30.8249  -49.1803  -56.4102 O.2       4 UNK        -0.5119 
     52 CA         32.6984  -50.1968  -55.3449 C.3       4 UNK         0.0263 
     53 CB         33.7914  -49.5935  -56.2400 C.3       4 UNK        -0.1967 
     54 N          33.2427  -50.4660  -54.0139 N.am      4 UNK        -0.4237 
     55 C          32.7778  -51.4149  -53.1881 C.2       3 UNK         0.4908 
     56 O          31.8480  -52.1703  -53.4740 O.2       3 UNK        -0.5102 
     57 CA         33.4317  -51.5189  -51.7970 C.3       3 UNK         0.0241 
     58 CB         34.5588  -52.5638  -51.8101 C.3       3 UNK        -0.1971 
     59 N          33.9547  -50.2458  -51.2877 N.am      3 UNK        -0.4139 
     60 C          33.2153  -49.1484  -51.0740 C.2       2 UNK         0.5016 
     61 O          32.0033  -49.1053  -51.2791 O.2       2 UNK        -0.5319 
     62 CA         33.9350  -47.8781  -50.5839 C.3       2 UNK         0.0286 
     63 CB         35.3668  -48.1255  -50.0552 C.3       2 UNK        -0.1963 
     64 N          33.9397  -46.8247  -51.6076 N.am      2 UNK        -0.4790 
     65 C          34.4527  -46.8911  -52.8467 C.2       1 UNK         0.5024 
     66 O          34.9816  -47.9105  -53.2962 O.2       1 UNK        -0.4888 
     67 H67        32.9976  -41.7964  -51.5654 H         1 UNK         0.0892 
     68 H68        32.0233  -42.4454  -52.8807 H         1 UNK         0.0892 
     69 H69        31.8768  -43.1269  -51.2545 H         1 UNK         0.0892 
     70 H70        32.5310  -44.5835  -53.7195 H         1 UNK         0.3107 
     71 H71        35.3604  -45.1849  -53.7242 H         1 UNK         0.0773 
     72 H72        33.1848  -46.6392  -55.2875 H         1 UNK         0.0680 
     73 H73        34.9020  -46.6248  -55.5979 H         1 UNK         0.0680 
     74 H74        32.1622  -44.3166  -57.9614 H         1 UNK         0.0650 
     75 H75        31.9816  -45.8340  -57.1262 H         1 UNK         0.0650 
     76 H76        31.0570  -45.8514  -54.7848 H         1 UNK         0.1397 
     77 H77        28.7807  -42.4119  -53.5765 H         1 UNK         0.1363 
     78 H78        31.2181  -42.2631  -57.0955 H         1 UNK         0.1355 
     79 H79        30.1163  -40.2760  -56.3653 H         1 UNK         0.0707 
     80 H80        29.6013  -40.1869  -54.7002 H         1 UNK         0.0707 
     81 H81        27.8242  -40.6223  -58.5417 H         1 UNK         0.1034 
     82 H82        28.7229  -41.9930  -57.9514 H         1 UNK         0.1034 
     83 H83        25.6836  -41.7557  -57.8677 H         1 UNK         0.0482 
     84 H84        25.4540  -44.5351  -59.1178 H         1 UNK         0.3460 
     85 H85        25.6698  -44.1784  -60.8192 H         1 UNK         0.3460 
     86 H86        25.6899  -43.4402  -56.4780 H         1 UNK         0.2989 
     87 H87        27.8750  -45.9115  -55.5248 H         1 UNK         0.0559 
     88 H88        25.9367  -45.8265  -54.0450 H         1 UNK         0.0848 
     89 H89        25.0153  -44.8594  -55.1865 H         1 UNK         0.0848 
     90 H90        26.4349  -44.1809  -54.3884 H         1 UNK         0.0848 
     91 H91        26.7250  -47.6898  -56.2084 H         1 UNK         0.3144 
     92 H92        24.2179  -48.6475  -57.0723 H         1 UNK         0.0727 
     93 H93        23.1871  -47.6951  -59.0998 H         1 UNK         0.0790 
     94 H94        23.7360  -49.3275  -59.4346 H         1 UNK         0.0790 
     95 H95        24.6630  -47.9461  -60.0199 H         1 UNK         0.0790 
     96 H96        25.8441  -50.1239  -57.3287 H         1 UNK         0.3215 
     97 H97        27.5028  -51.3610  -59.0308 H         1 UNK         0.0863 
     98 H98        29.9956  -51.1792  -59.1941 H         1 UNK         0.0808 
     99 H99        29.8849  -49.4408  -58.9189 H         1 UNK         0.0808 
    100 H100       29.1838  -50.1529  -60.3643 H         1 UNK         0.0808 
    101 H101       29.1200  -50.4390  -56.7619 H         1 UNK         0.3118 
    102 H102       26.9330  -51.6550  -54.2859 H         1 UNK         0.0546 
    103 H103       29.4860  -53.1176  -55.1574 H         1 UNK         0.0828 
    104 H104       27.9066  -53.8649  -54.9552 H         1 UNK         0.0828 
    105 H105       28.7404  -53.1958  -53.5625 H         1 UNK         0.0828 
    106 H106       29.6408  -50.8952  -54.0556 H         1 UNK         0.3005 
    107 H107       29.4959  -47.5081  -54.7389 H         1 UNK         0.1257 
    108 H108       29.4721  -48.5157  -51.8507 H         1 UNK         0.0775 
    109 H109       28.2692  -47.4411  -52.4893 H         1 UNK         0.0775 
    110 H110       28.3266  -45.2323  -52.9360 H         1 UNK         0.0840 
    111 H111       29.3173  -44.1994  -51.9453 H         1 UNK         0.0840 
    112 H112       31.4235  -49.0787  -53.3063 H         1 UNK         0.2987 
    113 H113       32.4183  -51.1510  -55.7971 H         1 UNK         0.0785 
    114 H114       34.2778  -48.7468  -55.7658 H         1 UNK         0.0798 
    115 H115       33.3903  -49.2554  -57.1966 H         1 UNK         0.0798 
    116 H116       34.5642  -50.3305  -56.4588 H         1 UNK         0.0798 
    117 H117       33.9806  -49.8510  -53.6891 H         1 UNK         0.3079 
    118 H118       32.6595  -51.8566  -51.1025 H         1 UNK         0.0794 
    119 H119       34.1918  -53.5291  -52.1624 H         1 UNK         0.0786 
    120 H120       34.9676  -52.7203  -50.8117 H         1 UNK         0.0786 
    121 H121       35.3775  -52.2669  -52.4671 H         1 UNK         0.0786 
    122 H122       34.9490  -50.1926  -51.1194 H         1 UNK         0.3032 
    123 H123       33.3373  -47.5013  -49.7521 H         1 UNK         0.1094 
    124 H124       35.7847  -47.2130  -49.6298 H         1 UNK         0.0794 
    125 H125       35.3712  -48.8747  -49.2622 H         1 UNK         0.0794 
    126 H126       36.0495  -48.4614  -50.8364 H         1 UNK         0.0794 
    127 H127       33.4900  -45.9592  -51.3447 H         1 UNK         0.3016 
@<TRIPOS>BOND
     1    1    2 1    
     2    1   67 1    
     3    1   68 1    
     4    1   69 1    
     5    2    3 2    
     6    2    4 am   BACKBONE|DICT|INTERRES
     7    4    5 1    
     8    4   70 1    
     9    5    6 1    
    10    5   65 1    
    11    5   71 1    
    12    6    7 1    
    13    6   72 1    
    14    6   73 1    
    15    7    8 1    
    16    8    9 1    
    17    8   74 1    
    18    8   75 1    
    19    9   10 ar   
    20    9   14 ar   
    21   10   11 ar   
    22   10   76 1    
    23   11   12 ar   
    24   11   48 1    
    25   12   13 ar   
    26   12   77 1    
    27   13   14 ar   
    28   13   15 1    
    29   14   78 1    
    30   15   16 1    
    31   15   79 1    
    32   15   80 1    
    33   16   17 1    
    34   17   18 1    
    35   17   81 1    
    36   17   82 1    
    37   18   19 1    
    38   18   22 1    
    39   18   83 1    
    40   19   20 am   BACKBONE|DICT|INTERRES
    41   19   21 2    
    42   20   84 1    
    43   20   85 1    
    44   22   23 am   BACKBONE|DICT|INTERRES
    45   22   86 1    
    46   23   24 2    
    47   23   25 1    
    48   25   26 1    
    49   25   27 1    
    50   25   87 1    
    51   26   88 1    
    52   26   89 1    
    53   26   90 1    
    54   27   28 am   BACKBONE|DICT|INTERRES
    55   27   91 1    
    56   28   29 2    
    57   28   30 1    
    58   30   31 1    
    59   30   32 1    
    60   30   92 1    
    61   31   93 1    
    62   31   94 1    
    63   31   95 1    
    64   32   33 am   BACKBONE|DICT|INTERRES
    65   32   96 1    
    66   33   34 2    
    67   33   35 1    
    68   35   36 1    
    69   35   37 1    
    70   35   97 1    
    71   36   98 1    
    72   36   99 1    
    73   36  100 1    
    74   37   38 am   BACKBONE|DICT|INTERRES
    75   37  101 1    
    76   38   39 2    
    77   38   40 1    
    78   40   41 1    
    79   40   42 1    
    80   40  102 1    
    81   41  103 1    
    82   41  104 1    
    83   41  105 1    
    84   42   43 am   BACKBONE|DICT|INTERRES
    85   42  106 1    
    86   43   44 2    
    87   43   45 1    
    88   45   46 1    
    89   45   49 1    
    90   45  107 1    
    91   46   47 1    
    92   46  108 1    
    93   46  109 1    
    94   47   48 1    
    95   48  110 1    
    96   48  111 1    
    97   49   50 am   BACKBONE|DICT|INTERRES
    98   49  112 1    
    99   50   51 2    
   100   50   52 1    
   101   52   53 1    
   102   52   54 1    
   103   52  113 1    
   104   53  114 1    
   105   53  115 1    
   106   53  116 1    
   107   54   55 am   BACKBONE|DICT|INTERRES
   108   54  117 1    
   109   55   56 2    
   110   55   57 1    
   111   57   58 1    
   112   57   59 1    
   113   57  118 1    
   114   58  119 1    
   115   58  120 1    
   116   58  121 1    
   117   59   60 am   BACKBONE|DICT|INTERRES
   118   59  122 1    
   119   60   61 2    
   120   60   62 1    
   121   62   63 1    
   122   62   64 1    
   123   62  123 1    
   124   63  124 1    
   125   63  125 1    
   126   63  126 1    
   127   64   65 am   BACKBONE|DICT|INTERRES
   128   64  127 1    
   129   65   66 2    
@<TRIPOS>SUBSTRUCTURE
     1 UNK         1 GROUP             0       ****    0 ROOT    
