@<TRIPOS>MOLECULE
3R134
127   129    1
SMALL
USER_CHARGES


@<TRIPOS>ATOM
      1 CA         35.6039  -51.8568  -54.7756 C.3       0 UNK        -0.1968 
      2 C          34.8160  -50.5708  -54.5828 C.2       0 UNK         0.4852 
      3 O          34.3974  -50.2775  -53.4591 O.2       0 UNK        -0.5359 
      4 N          34.6049  -49.8073  -55.6662 N.am      1 UNK        -0.4300 
      5 CA         33.8962  -48.5245  -55.6707 C.3       1 UNK         0.0863 
      6 C6         33.5310  -48.0603  -57.1044 C.3       11 UNK        -0.0953 
      7 S7         32.0482  -47.0018  -57.1015 S.3       11 UNK        -0.2369 
      8 C8         32.7786  -45.3340  -57.1083 C.3       11 UNK         0.0226 
      9 C9         31.9502  -44.3926  -56.2509 C.ar      11 UNK        -0.0699 
     10 C10        32.0467  -44.4556  -54.8580 C.ar      11 UNK        -0.0804 
     11 C11        31.2366  -43.6514  -54.0521 C.ar      11 UNK        -0.0871 
     12 C12        30.3559  -42.7468  -54.6519 C.ar      11 UNK        -0.1008 
     13 C13        30.2663  -42.6587  -56.0440 C.ar      11 UNK        -0.0735 
     14 C14        31.0682  -43.4822  -56.8397 C.ar      11 UNK        -0.0945 
     15 C15        29.2900  -41.6844  -56.6865 C.3       11 UNK         0.0169 
     16 S16        27.7826  -42.5205  -57.2701 S.3       11 UNK        -0.2669 
     17 C17        27.1030  -43.1829  -55.7068 C.3       11 UNK        -0.0850 
     18 CA         25.6320  -43.6625  -55.8147 C.3       10 UNK         0.0855 
     19 C          24.6262  -42.4782  -55.9129 C.2       10 UNK         0.5543 
     20 N          23.8350  -42.3616  -56.9726 N.am      10 UNK        -0.7343 
     21 O          24.5526  -41.6595  -54.9997 O.2       10 UNK        -0.5027 
     22 N          25.4891  -44.6908  -56.8538 N.am      10 UNK        -0.4495 
     23 C          24.5394  -45.6294  -56.9092 C.2       10 UNK         0.4903 
     24 O          23.6524  -45.7505  -56.0644 O.2       10 UNK        -0.4860 
     25 CA         24.5881  -46.6263  -58.0839 C.3       9 UNK         0.0227 
     26 CB         23.6572  -46.1860  -59.2307 C.3       9 UNK        -0.1964 
     27 N          25.9447  -46.9413  -58.5617 N.am      9 UNK        -0.4231 
     28 C          26.8180  -46.1546  -59.2121 C.2       9 UNK         0.5014 
     29 O          26.5454  -45.0139  -59.5859 O.2       9 UNK        -0.5270 
     30 CA         28.2440  -46.6943  -59.4379 C.3       8 UNK         0.0284 
     31 CB         29.2979  -45.6142  -59.1393 C.3       8 UNK        -0.1977 
     32 N          28.5219  -47.8565  -58.5918 N.am      8 UNK        -0.4342 
     33 C          28.5737  -49.1274  -59.0136 C.2       8 UNK         0.5039 
     34 O          28.4824  -49.4621  -60.1952 O.2       8 UNK        -0.5547 
     35 CA         28.7078  -50.2213  -57.9352 C.3       7 UNK         0.0281 
     36 CB         30.1773  -50.6456  -57.7827 C.3       7 UNK        -0.1963 
     37 N          28.1701  -49.8240  -56.6276 N.am      7 UNK        -0.4444 
     38 C          26.8824  -49.5152  -56.3993 C.2       7 UNK         0.5104 
     39 O          26.0056  -49.6210  -57.2564 O.2       7 UNK        -0.5100 
     40 CA         26.4953  -48.9352  -55.0237 C.3       6 UNK         0.0396 
     41 CB         25.7817  -50.0006  -54.1774 C.3       6 UNK        -0.1801 
     42 N          27.6153  -48.3861  -54.2567 N.am      6 UNK        -0.4747 
     43 C          28.4289  -47.3916  -54.6447 C.2       6 UNK         0.5012 
     44 O          28.2749  -46.7560  -55.6884 O.2       6 UNK        -0.5003 
     45 CA         29.6650  -47.1264  -53.7562 C.3       5 UNK         0.0782 
     46 C46        29.4217  -45.9278  -52.8077 C.3       11 UNK        -0.0868 
     47 S47        30.9578  -45.4628  -51.9335 S.3       11 UNK        -0.2515 
     48 C48        31.2884  -43.7707  -52.5339 C.3       11 UNK         0.0199 
     49 N          30.1120  -48.3166  -53.0096 N.am      5 UNK        -0.4607 
     50 C          30.4776  -49.4876  -53.5461 C.2       4 UNK         0.5031 
     51 O          30.4733  -49.7048  -54.7569 O.2       4 UNK        -0.5119 
     52 CA         30.9144  -50.5853  -52.5647 C.3       4 UNK         0.0263 
     53 CB         31.2059  -51.9221  -53.2725 C.3       4 UNK        -0.1967 
     54 N          32.1134  -50.1588  -51.8477 N.am      4 UNK        -0.4237 
     55 C          32.1321  -49.5695  -50.6438 C.2       3 UNK         0.4908 
     56 O          31.1202  -49.3216  -49.9882 O.2       3 UNK        -0.5102 
     57 CA         33.5071  -49.1519  -50.1040 C.3       3 UNK         0.0241 
     58 CB         34.3148  -50.3805  -49.6527 C.3       3 UNK        -0.1971 
     59 N          34.2436  -48.4358  -51.1434 N.am      3 UNK        -0.4139 
     60 C          34.3936  -47.1040  -51.2051 C.2       2 UNK         0.5016 
     61 O          34.0812  -46.3261  -50.3042 O.2       2 UNK        -0.5319 
     62 CA         34.9494  -46.5508  -52.5243 C.3       2 UNK         0.0286 
     63 CB         36.4900  -46.6614  -52.5066 C.3       2 UNK        -0.1963 
     64 N          34.3254  -47.3117  -53.6115 N.am      2 UNK        -0.4790 
     65 C          34.7030  -47.4709  -54.8829 C.2       1 UNK         0.5024 
     66 O          35.6458  -46.8865  -55.4180 O.2       1 UNK        -0.4888 
     67 H67        36.5022  -51.8401  -54.1592 H         1 UNK         0.0892 
     68 H68        34.9999  -52.7124  -54.4749 H         1 UNK         0.0892 
     69 H69        35.9050  -52.0007  -55.8130 H         1 UNK         0.0892 
     70 H70        34.9973  -50.0913  -56.5524 H         1 UNK         0.3107 
     71 H71        32.9589  -48.7031  -55.1398 H         1 UNK         0.0773 
     72 H72        34.3615  -47.5667  -57.6125 H         1 UNK         0.0680 
     73 H73        33.2817  -48.9254  -57.7207 H         1 UNK         0.0680 
     74 H74        32.8389  -44.9756  -58.1369 H         1 UNK         0.0650 
     75 H75        33.8004  -45.3553  -56.7299 H         1 UNK         0.0650 
     76 H76        32.7238  -45.1610  -54.3988 H         1 UNK         0.1397 
     77 H77        29.7261  -42.1197  -54.0358 H         1 UNK         0.1363 
     78 H78        30.9862  -43.4287  -57.9165 H         1 UNK         0.1355 
     79 H79        29.7709  -41.1922  -57.5330 H         1 UNK         0.0707 
     80 H80        29.0166  -40.8920  -55.9879 H         1 UNK         0.0707 
     81 H81        27.7306  -44.0219  -55.4016 H         1 UNK         0.1034 
     82 H82        27.2063  -42.4347  -54.9189 H         1 UNK         0.1034 
     83 H83        25.3995  -44.1479  -54.8649 H         1 UNK         0.0482 
     84 H84        23.8986  -43.0264  -57.7264 H         1 UNK         0.3460 
     85 H85        23.1831  -41.5949  -57.0241 H         1 UNK         0.3460 
     86 H86        26.1366  -44.6220  -57.6315 H         1 UNK         0.2989 
     87 H87        24.1969  -47.5687  -57.6977 H         1 UNK         0.0559 
     88 H88        22.6300  -46.0861  -58.8778 H         1 UNK         0.0848 
     89 H89        23.6516  -46.9164  -60.0397 H         1 UNK         0.0848 
     90 H90        23.9467  -45.2224  -59.6502 H         1 UNK         0.0848 
     91 H91        26.2638  -47.8670  -58.2965 H         1 UNK         0.3144 
     92 H92        28.3197  -46.9603  -60.4938 H         1 UNK         0.0727 
     93 H93        29.2613  -45.3062  -58.0934 H         1 UNK         0.0790 
     94 H94        29.1440  -44.7231  -59.7491 H         1 UNK         0.0790 
     95 H95        30.3043  -45.9754  -59.3491 H         1 UNK         0.0790 
     96 H96        28.5985  -47.6665  -57.5969 H         1 UNK         0.3215 
     97 H97        28.1364  -51.0871  -58.2764 H         1 UNK         0.0863 
     98 H98        30.2854  -51.4572  -57.0629 H         1 UNK         0.0808 
     99 H99        30.8019  -49.8171  -57.4473 H         1 UNK         0.0808 
    100 H100       30.5839  -50.9962  -58.7322 H         1 UNK         0.0808 
    101 H101       28.8492  -49.7145  -55.8787 H         1 UNK         0.3118 
    102 H102       25.7951  -48.1173  -55.2058 H         1 UNK         0.0546 
    103 H103       26.4412  -50.8363  -53.9399 H         1 UNK         0.0828 
    104 H104       24.9193  -50.4073  -54.7077 H         1 UNK         0.0828 
    105 H105       25.4135  -49.5837  -53.2399 H         1 UNK         0.0828 
    106 H106       27.8327  -48.8513  -53.3873 H         1 UNK         0.3005 
    107 H107       30.4697  -46.8599  -54.4448 H         1 UNK         0.1257 
    108 H108       28.6629  -46.1747  -52.0630 H         1 UNK         0.0775 
    109 H109       29.0340  -45.0674  -53.3556 H         1 UNK         0.0775 
    110 H110       30.5712  -43.0937  -52.0674 H         1 UNK         0.0840 
    111 H111       32.2742  -43.4598  -52.1855 H         1 UNK         0.0840 
    112 H112       30.1666  -48.2119  -52.0049 H         1 UNK         0.2987 
    113 H113       30.0934  -50.7505  -51.8638 H         1 UNK         0.0785 
    114 H114       30.3228  -52.2851  -53.8001 H         1 UNK         0.0798 
    115 H115       31.4968  -52.6928  -52.5587 H         1 UNK         0.0798 
    116 H116       32.0069  -51.8266  -54.0065 H         1 UNK         0.0798 
    117 H117       32.9914  -50.2958  -52.3471 H         1 UNK         0.3079 
    118 H118       33.3491  -48.5085  -49.2356 H         1 UNK         0.0794 
    119 H119       35.2716  -50.0848  -49.2220 H         1 UNK         0.0786 
    120 H120       34.5188  -51.0624  -50.4795 H         1 UNK         0.0786 
    121 H121       33.7757  -50.9429  -48.8890 H         1 UNK         0.0786 
    122 H122       34.5565  -48.9922  -51.9342 H         1 UNK         0.3032 
    123 H123       34.6556  -45.5032  -52.6136 H         1 UNK         0.1094 
    124 H124       36.8239  -47.6982  -52.5628 H         1 UNK         0.0794 
    125 H125       36.9432  -46.1155  -53.3334 H         1 UNK         0.0794 
    126 H126       36.9024  -46.2346  -51.5910 H         1 UNK         0.0794 
    127 H127       33.5218  -47.8479  -53.3137 H         1 UNK         0.3016 
@<TRIPOS>BOND
     1    1    2 1    
     2    1   67 1    
     3    1   68 1    
     4    1   69 1    
     5    2    3 2    
     6    2    4 am   BACKBONE|DICT|INTERRES
     7    4    5 1    
     8    4   70 1    
     9    5    6 1    
    10    5   65 1    
    11    5   71 1    
    12    6    7 1    
    13    6   72 1    
    14    6   73 1    
    15    7    8 1    
    16    8    9 1    
    17    8   74 1    
    18    8   75 1    
    19    9   10 ar   
    20    9   14 ar   
    21   10   11 ar   
    22   10   76 1    
    23   11   12 ar   
    24   11   48 1    
    25   12   13 ar   
    26   12   77 1    
    27   13   14 ar   
    28   13   15 1    
    29   14   78 1    
    30   15   16 1    
    31   15   79 1    
    32   15   80 1    
    33   16   17 1    
    34   17   18 1    
    35   17   81 1    
    36   17   82 1    
    37   18   19 1    
    38   18   22 1    
    39   18   83 1    
    40   19   20 am   BACKBONE|DICT|INTERRES
    41   19   21 2    
    42   20   84 1    
    43   20   85 1    
    44   22   23 am   BACKBONE|DICT|INTERRES
    45   22   86 1    
    46   23   24 2    
    47   23   25 1    
    48   25   26 1    
    49   25   27 1    
    50   25   87 1    
    51   26   88 1    
    52   26   89 1    
    53   26   90 1    
    54   27   28 am   BACKBONE|DICT|INTERRES
    55   27   91 1    
    56   28   29 2    
    57   28   30 1    
    58   30   31 1    
    59   30   32 1    
    60   30   92 1    
    61   31   93 1    
    62   31   94 1    
    63   31   95 1    
    64   32   33 am   BACKBONE|DICT|INTERRES
    65   32   96 1    
    66   33   34 2    
    67   33   35 1    
    68   35   36 1    
    69   35   37 1    
    70   35   97 1    
    71   36   98 1    
    72   36   99 1    
    73   36  100 1    
    74   37   38 am   BACKBONE|DICT|INTERRES
    75   37  101 1    
    76   38   39 2    
    77   38   40 1    
    78   40   41 1    
    79   40   42 1    
    80   40  102 1    
    81   41  103 1    
    82   41  104 1    
    83   41  105 1    
    84   42   43 am   BACKBONE|DICT|INTERRES
    85   42  106 1    
    86   43   44 2    
    87   43   45 1    
    88   45   46 1    
    89   45   49 1    
    90   45  107 1    
    91   46   47 1    
    92   46  108 1    
    93   46  109 1    
    94   47   48 1    
    95   48  110 1    
    96   48  111 1    
    97   49   50 am   BACKBONE|DICT|INTERRES
    98   49  112 1    
    99   50   51 2    
   100   50   52 1    
   101   52   53 1    
   102   52   54 1    
   103   52  113 1    
   104   53  114 1    
   105   53  115 1    
   106   53  116 1    
   107   54   55 am   BACKBONE|DICT|INTERRES
   108   54  117 1    
   109   55   56 2    
   110   55   57 1    
   111   57   58 1    
   112   57   59 1    
   113   57  118 1    
   114   58  119 1    
   115   58  120 1    
   116   58  121 1    
   117   59   60 am   BACKBONE|DICT|INTERRES
   118   59  122 1    
   119   60   61 2    
   120   60   62 1    
   121   62   63 1    
   122   62   64 1    
   123   62  123 1    
   124   63  124 1    
   125   63  125 1    
   126   63  126 1    
   127   64   65 am   BACKBONE|DICT|INTERRES
   128   64  127 1    
   129   65   66 2    
@<TRIPOS>SUBSTRUCTURE
     1 UNK         1 GROUP             0       ****    0 ROOT    
