@<TRIPOS>MOLECULE
3R134
127   129    1
SMALL
USER_CHARGES


@<TRIPOS>ATOM
      1 CA         36.5807  -48.0275  -56.2626 C.3       0 UNK        -0.1968 
      2 C          35.5332  -47.6107  -55.2427 C.2       0 UNK         0.4852 
      3 O          34.5868  -48.3601  -54.9986 O.2       0 UNK        -0.5359 
      4 N          35.7013  -46.4323  -54.6267 N.am      1 UNK        -0.4300 
      5 CA         34.7719  -45.8021  -53.6727 C.3       1 UNK         0.0863 
      6 C6         35.2304  -44.3743  -53.2928 C.3       11 UNK        -0.0953 
      7 S7         35.2913  -43.2772  -54.7494 S.3       11 UNK        -0.2369 
      8 C8         33.9573  -42.0909  -54.3912 C.3       11 UNK         0.0226 
      9 C9         32.5699  -42.7145  -54.4783 C.ar      11 UNK        -0.0699 
     10 C10        31.8534  -43.0100  -53.3138 C.ar      11 UNK        -0.0804 
     11 C11        30.5521  -43.5181  -53.3868 C.ar      11 UNK        -0.0871 
     12 C12        29.9717  -43.7377  -54.6388 C.ar      11 UNK        -0.1008 
     13 C13        30.6797  -43.4550  -55.8098 C.ar      11 UNK        -0.0735 
     14 C14        31.9793  -42.9457  -55.7249 C.ar      11 UNK        -0.0945 
     15 C15        30.0217  -43.6768  -57.1612 C.3       11 UNK         0.0169 
     16 S16        28.9866  -42.2489  -57.6056 S.3       11 UNK        -0.2669 
     17 C17        28.1685  -42.8456  -59.1227 C.3       11 UNK        -0.0850 
     18 CA         26.6790  -43.2070  -58.8854 C.3       10 UNK         0.0855 
     19 C          25.9722  -43.5091  -60.2335 C.2       10 UNK         0.5543 
     20 N          25.1332  -42.6035  -60.7164 N.am      10 UNK        -0.7343 
     21 O          26.2207  -44.5342  -60.8644 O.2       10 UNK        -0.5027 
     22 N          26.5456  -44.3268  -57.9453 N.am      10 UNK        -0.4495 
     23 C          25.4090  -44.7190  -57.3558 C.2       10 UNK         0.4903 
     24 O          24.3394  -44.1153  -57.4524 O.2       10 UNK        -0.4860 
     25 CA         25.5044  -46.0084  -56.5146 C.3       9 UNK         0.0227 
     26 CB         24.1302  -46.5955  -56.1298 C.3       9 UNK        -0.1964 
     27 N          26.3585  -47.0201  -57.1496 N.am      9 UNK        -0.4231 
     28 C          26.1692  -47.6137  -58.3391 C.2       9 UNK         0.5014 
     29 O          25.1648  -47.4697  -59.0364 O.2       9 UNK        -0.5270 
     30 CA         27.2999  -48.5195  -58.8408 C.3       8 UNK         0.0284 
     31 CB         28.4918  -47.6829  -59.3418 C.3       8 UNK        -0.1977 
     32 N          27.7431  -49.4391  -57.7906 N.am      8 UNK        -0.4342 
     33 C          27.7188  -50.7742  -57.8913 C.2       8 UNK         0.5039 
     34 O          27.3495  -51.3816  -58.8978 O.2       8 UNK        -0.5547 
     35 CA         28.1910  -51.5863  -56.6738 C.3       7 UNK         0.0281 
     36 CB         29.6823  -51.9385  -56.8030 C.3       7 UNK        -0.1963 
     37 N          27.9532  -50.9300  -55.3855 N.am      7 UNK        -0.4444 
     38 C          26.7447  -50.7872  -54.8210 C.2       7 UNK         0.5104 
     39 O          25.6914  -51.1163  -55.3667 O.2       7 UNK        -0.5100 
     40 CA         26.6989  -50.1977  -53.4037 C.3       6 UNK         0.0396 
     41 CB         27.0150  -51.2854  -52.3643 C.3       6 UNK        -0.1801 
     42 N          27.6514  -49.0988  -53.2526 N.am      6 UNK        -0.4747 
     43 C          27.3211  -47.8017  -53.1758 C.2       6 UNK         0.5012 
     44 O          26.1627  -47.3851  -53.1656 O.2       6 UNK        -0.5003 
     45 CA         28.4841  -46.7885  -53.1078 C.3       5 UNK         0.0782 
     46 C46        28.7786  -46.4236  -51.6306 C.3       11 UNK        -0.0868 
     47 S47        30.2540  -45.3820  -51.3714 S.3       11 UNK        -0.2515 
     48 C48        29.7694  -43.7926  -52.1103 C.3       11 UNK         0.0199 
     49 N          29.6787  -47.2407  -53.8302 N.am      5 UNK        -0.4607 
     50 C          29.7263  -47.5140  -55.1397 C.2       4 UNK         0.5031 
     51 O          28.7675  -47.3816  -55.8992 O.2       4 UNK        -0.5119 
     52 CA         31.0359  -48.0812  -55.7048 C.3       4 UNK         0.0263 
     53 CB         31.8594  -46.9519  -56.3408 C.3       4 UNK        -0.1967 
     54 N          31.8629  -48.8366  -54.7525 N.am      4 UNK        -0.4237 
     55 C          31.4592  -49.8873  -54.0181 C.2       3 UNK         0.4908 
     56 O          30.2896  -50.2726  -53.9661 O.2       3 UNK        -0.5102 
     57 CA         32.5189  -50.6502  -53.2115 C.3       3 UNK         0.0241 
     58 CB         33.1432  -51.7540  -54.0805 C.3       3 UNK        -0.1971 
     59 N          33.5805  -49.7746  -52.7088 N.am      3 UNK        -0.4139 
     60 C          33.8888  -49.6042  -51.4142 C.2       2 UNK         0.5016 
     61 O          33.3035  -50.1697  -50.4894 O.2       2 UNK        -0.5319 
     62 CA         35.0561  -48.6529  -51.0775 C.3       2 UNK         0.0286 
     63 CB         36.3454  -49.4531  -50.8306 C.3       2 UNK        -0.1963 
     64 N          35.3090  -47.6491  -52.1141 N.am      2 UNK        -0.4790 
     65 C          34.4784  -46.6384  -52.4068 C.2       1 UNK         0.5024 
     66 O          33.4847  -46.3743  -51.7330 O.2       1 UNK        -0.4888 
     67 H67        37.0428  -48.9672  -55.9619 H         1 UNK         0.0892 
     68 H68        37.3664  -47.2800  -56.3701 H         1 UNK         0.0892 
     69 H69        36.1144  -48.1732  -57.2365 H         1 UNK         0.0892 
     70 H70        36.5007  -45.8650  -54.8715 H         1 UNK         0.3107 
     71 H71        33.8138  -45.7096  -54.1848 H         1 UNK         0.0773 
     72 H72        36.2216  -44.3988  -52.8365 H         1 UNK         0.0680 
     73 H73        34.5664  -43.9363  -52.5454 H         1 UNK         0.0680 
     74 H74        34.1227  -41.6476  -53.4080 H         1 UNK         0.0650 
     75 H75        34.0239  -41.2692  -55.1057 H         1 UNK         0.0650 
     76 H76        32.3004  -42.8292  -52.3458 H         1 UNK         0.1397 
     77 H77        28.9596  -44.1078  -54.7112 H         1 UNK         0.1363 
     78 H78        32.5255  -42.7098  -56.6281 H         1 UNK         0.1355 
     79 H79        29.4132  -44.5817  -57.1284 H         1 UNK         0.0707 
     80 H80        30.7766  -43.8357  -57.9330 H         1 UNK         0.0707 
     81 H81        28.7158  -43.6944  -59.5379 H         1 UNK         0.1034 
     82 H82        28.2483  -42.0487  -59.8649 H         1 UNK         0.1034 
     83 H83        26.1926  -42.3414  -58.4303 H         1 UNK         0.0482 
     84 H84        24.6798  -42.7768  -61.6000 H         1 UNK         0.3460 
     85 H85        24.9302  -41.7572  -60.2070 H         1 UNK         0.3460 
     86 H86        27.3637  -44.9021  -57.8269 H         1 UNK         0.2989 
     87 H87        26.0090  -45.7281  -55.5889 H         1 UNK         0.0559 
     88 H88        23.5347  -46.8498  -57.0069 H         1 UNK         0.0848 
     89 H89        23.5528  -45.8816  -55.5414 H         1 UNK         0.0848 
     90 H90        24.2420  -47.4957  -55.5251 H         1 UNK         0.0848 
     91 H91        27.2449  -47.1865  -56.6715 H         1 UNK         0.3144 
     92 H92        26.9048  -49.0749  -59.6941 H         1 UNK         0.0727 
     93 H93        29.2593  -48.3190  -59.7827 H         1 UNK         0.0790 
     94 H94        28.9579  -47.1065  -58.5428 H         1 UNK         0.0790 
     95 H95        28.1750  -46.9767  -60.1111 H         1 UNK         0.0790 
     96 H96        28.0499  -49.0208  -56.9203 H         1 UNK         0.3215 
     97 H97        27.6279  -52.5224  -56.6753 H         1 UNK         0.0863 
     98 H98        30.0133  -52.5726  -55.9803 H         1 UNK         0.0808 
     99 H99        30.3113  -51.0493  -56.8135 H         1 UNK         0.0808 
    100 H100       29.8749  -52.4831  -57.7285 H         1 UNK         0.0808 
    101 H101       28.7799  -50.6672  -54.8514 H         1 UNK         0.3118 
    102 H102       25.6801  -49.8484  -53.2232 H         1 UNK         0.0546 
    103 H103       26.3243  -52.1249  -52.4546 H         1 UNK         0.0828 
    104 H104       26.9237  -50.8993  -51.3491 H         1 UNK         0.0828 
    105 H105       28.0257  -51.6790  -52.4824 H         1 UNK         0.0828 
    106 H106       28.6357  -49.3447  -53.2893 H         1 UNK         0.3005 
    107 H107       28.1266  -45.8915  -53.6134 H         1 UNK         0.1257 
    108 H108       28.9321  -47.3307  -51.0422 H         1 UNK         0.0775 
    109 H109       27.9186  -45.9204  -51.1840 H         1 UNK         0.0775 
    110 H110       28.6954  -43.7686  -52.2998 H         1 UNK         0.0840 
    111 H111       29.9632  -42.9982  -51.3880 H         1 UNK         0.0840 
    112 H112       30.5168  -47.3536  -53.2783 H         1 UNK         0.2987 
    113 H113       30.7610  -48.7750  -56.5001 H         1 UNK         0.0785 
    114 H114       31.2925  -46.4554  -57.1290 H         1 UNK         0.0798 
    115 H115       32.7749  -47.3285  -56.7963 H         1 UNK         0.0798 
    116 H116       32.1286  -46.1898  -55.6103 H         1 UNK         0.0798 
    117 H117       32.8596  -48.6246  -54.7792 H         1 UNK         0.3079 
    118 H118       31.9962  -51.1302  -52.3815 H         1 UNK         0.0794 
    119 H119       33.6877  -51.3395  -54.9303 H         1 UNK         0.0786 
    120 H120       32.3769  -52.4223  -54.4761 H         1 UNK         0.0786 
    121 H121       33.8384  -52.3640  -53.5035 H         1 UNK         0.0786 
    122 H122       34.1078  -49.2569  -53.4074 H         1 UNK         0.3032 
    123 H123       34.7924  -48.1314  -50.1543 H         1 UNK         0.1094 
    124 H124       37.1626  -48.8034  -50.5164 H         1 UNK         0.0794 
    125 H125       36.2004  -50.1923  -50.0413 H         1 UNK         0.0794 
    126 H126       36.6656  -49.9901  -51.7245 H         1 UNK         0.0794 
    127 H127       36.1075  -47.7983  -52.7141 H         1 UNK         0.3016 
@<TRIPOS>BOND
     1    1    2 1    
     2    1   67 1    
     3    1   68 1    
     4    1   69 1    
     5    2    3 2    
     6    2    4 am   BACKBONE|DICT|INTERRES
     7    4    5 1    
     8    4   70 1    
     9    5    6 1    
    10    5   65 1    
    11    5   71 1    
    12    6    7 1    
    13    6   72 1    
    14    6   73 1    
    15    7    8 1    
    16    8    9 1    
    17    8   74 1    
    18    8   75 1    
    19    9   10 ar   
    20    9   14 ar   
    21   10   11 ar   
    22   10   76 1    
    23   11   12 ar   
    24   11   48 1    
    25   12   13 ar   
    26   12   77 1    
    27   13   14 ar   
    28   13   15 1    
    29   14   78 1    
    30   15   16 1    
    31   15   79 1    
    32   15   80 1    
    33   16   17 1    
    34   17   18 1    
    35   17   81 1    
    36   17   82 1    
    37   18   19 1    
    38   18   22 1    
    39   18   83 1    
    40   19   20 am   BACKBONE|DICT|INTERRES
    41   19   21 2    
    42   20   84 1    
    43   20   85 1    
    44   22   23 am   BACKBONE|DICT|INTERRES
    45   22   86 1    
    46   23   24 2    
    47   23   25 1    
    48   25   26 1    
    49   25   27 1    
    50   25   87 1    
    51   26   88 1    
    52   26   89 1    
    53   26   90 1    
    54   27   28 am   BACKBONE|DICT|INTERRES
    55   27   91 1    
    56   28   29 2    
    57   28   30 1    
    58   30   31 1    
    59   30   32 1    
    60   30   92 1    
    61   31   93 1    
    62   31   94 1    
    63   31   95 1    
    64   32   33 am   BACKBONE|DICT|INTERRES
    65   32   96 1    
    66   33   34 2    
    67   33   35 1    
    68   35   36 1    
    69   35   37 1    
    70   35   97 1    
    71   36   98 1    
    72   36   99 1    
    73   36  100 1    
    74   37   38 am   BACKBONE|DICT|INTERRES
    75   37  101 1    
    76   38   39 2    
    77   38   40 1    
    78   40   41 1    
    79   40   42 1    
    80   40  102 1    
    81   41  103 1    
    82   41  104 1    
    83   41  105 1    
    84   42   43 am   BACKBONE|DICT|INTERRES
    85   42  106 1    
    86   43   44 2    
    87   43   45 1    
    88   45   46 1    
    89   45   49 1    
    90   45  107 1    
    91   46   47 1    
    92   46  108 1    
    93   46  109 1    
    94   47   48 1    
    95   48  110 1    
    96   48  111 1    
    97   49   50 am   BACKBONE|DICT|INTERRES
    98   49  112 1    
    99   50   51 2    
   100   50   52 1    
   101   52   53 1    
   102   52   54 1    
   103   52  113 1    
   104   53  114 1    
   105   53  115 1    
   106   53  116 1    
   107   54   55 am   BACKBONE|DICT|INTERRES
   108   54  117 1    
   109   55   56 2    
   110   55   57 1    
   111   57   58 1    
   112   57   59 1    
   113   57  118 1    
   114   58  119 1    
   115   58  120 1    
   116   58  121 1    
   117   59   60 am   BACKBONE|DICT|INTERRES
   118   59  122 1    
   119   60   61 2    
   120   60   62 1    
   121   62   63 1    
   122   62   64 1    
   123   62  123 1    
   124   63  124 1    
   125   63  125 1    
   126   63  126 1    
   127   64   65 am   BACKBONE|DICT|INTERRES
   128   64  127 1    
   129   65   66 2    
@<TRIPOS>SUBSTRUCTURE
     1 UNK         1 GROUP             0       ****    0 ROOT    
