@<TRIPOS>MOLECULE
3R134
127   129    1
SMALL
USER_CHARGES


@<TRIPOS>ATOM
      1 CA         36.8874  -46.9343  -51.9111 C.3       0 UNK        -0.1968 
      2 C          35.4345  -46.6466  -52.2563 C.2       0 UNK         0.4852 
      3 O          34.7618  -47.5037  -52.8272 O.2       0 UNK        -0.5359 
      4 N          34.9355  -45.4573  -51.8917 N.am      1 UNK        -0.4300 
      5 CA         33.5856  -44.9562  -52.2009 C.3       1 UNK         0.0863 
      6 C6         33.4770  -43.4238  -51.9724 C.3       11 UNK        -0.0953 
      7 S7         34.6817  -42.4851  -52.9799 S.3       11 UNK        -0.2369 
      8 C8         33.6350  -41.7078  -54.2624 C.3       11 UNK         0.0226 
      9 C9         32.7247  -42.7019  -54.9741 C.ar      11 UNK        -0.0699 
     10 C10        33.2558  -43.8512  -55.5670 C.ar      11 UNK        -0.0804 
     11 C11        32.4130  -44.8283  -56.1027 C.ar      11 UNK        -0.0871 
     12 C12        31.0324  -44.6076  -56.1228 C.ar      11 UNK        -0.1008 
     13 C13        30.4910  -43.4418  -55.5722 C.ar      11 UNK        -0.0735 
     14 C14        31.3417  -42.4960  -54.9934 C.ar      11 UNK        -0.0945 
     15 C15        28.9859  -43.2213  -55.5688 C.3       11 UNK         0.0169 
     16 S16        28.1991  -44.1066  -54.1886 S.3       11 UNK        -0.2669 
     17 C17        26.4373  -43.6918  -54.4287 C.3       11 UNK        -0.0850 
     18 CA         25.6076  -44.8750  -55.0142 C.3       10 UNK         0.0855 
     19 C          24.0672  -44.6558  -54.8899 C.2       10 UNK         0.5543 
     20 N          23.2520  -45.1228  -55.8292 N.am      10 UNK        -0.7343 
     21 O          23.5954  -44.0826  -53.9109 O.2       10 UNK        -0.5027 
     22 N          26.0539  -45.2933  -56.3562 N.am      10 UNK        -0.4495 
     23 C          26.0155  -44.5449  -57.4681 C.2       10 UNK         0.4903 
     24 O          25.6373  -43.3740  -57.4995 O.2       10 UNK        -0.4860 
     25 CA         26.4781  -45.2046  -58.7768 C.3       9 UNK         0.0227 
     26 CB         27.9251  -44.7980  -59.1013 C.3       9 UNK        -0.1964 
     27 N          26.3790  -46.6662  -58.7732 N.am      9 UNK        -0.4231 
     28 C          25.2340  -47.3569  -58.8613 C.2       9 UNK         0.5014 
     29 O          24.1197  -46.8324  -58.8569 O.2       9 UNK        -0.5270 
     30 CA         25.3474  -48.8830  -58.9803 C.3       8 UNK         0.0284 
     31 CB         25.9019  -49.2851  -60.3581 C.3       8 UNK        -0.1977 
     32 N          26.1985  -49.4437  -57.9292 N.am      8 UNK        -0.4342 
     33 C          25.8244  -50.4064  -57.0734 C.2       8 UNK         0.5039 
     34 O          24.7166  -50.9453  -57.0903 O.2       8 UNK        -0.5547 
     35 CA         26.8498  -50.8647  -56.0155 C.3       7 UNK         0.0281 
     36 CB         27.5015  -52.1912  -56.4387 C.3       7 UNK        -0.1963 
     37 N          27.9036  -49.8850  -55.7477 N.am      7 UNK        -0.4444 
     38 C          27.7072  -48.6793  -55.1963 C.2       7 UNK         0.5104 
     39 O          26.6203  -48.2904  -54.7709 O.2       7 UNK        -0.5100 
     40 CA         28.9075  -47.7191  -55.1669 C.3       6 UNK         0.0396 
     41 CB         29.4998  -47.6425  -53.7543 C.3       6 UNK        -0.1801 
     42 N          29.9694  -48.0402  -56.1275 N.am      6 UNK        -0.4747 
     43 C          29.8232  -48.0462  -57.4627 C.2       6 UNK         0.5012 
     44 O          28.7392  -47.8692  -58.0200 O.2       6 UNK        -0.5003 
     45 CA         31.0649  -48.3140  -58.3383 C.3       5 UNK         0.0782 
     46 C46        31.6220  -46.9854  -58.9490 C.3       11 UNK        -0.0868 
     47 S47        33.2235  -46.3405  -58.3276 S.3       11 UNK        -0.2515 
     48 C48        32.9937  -46.1673  -56.5308 C.3       11 UNK         0.0199 
     49 N          32.0897  -49.1445  -57.6954 N.am      5 UNK        -0.4607 
     50 C          31.9107  -50.3499  -57.1379 C.2       4 UNK         0.5031 
     51 O          30.8406  -50.9608  -57.1514 O.2       4 UNK        -0.5119 
     52 CA         33.1135  -50.9613  -56.3942 C.3       4 UNK         0.0263 
     53 CB         34.4597  -50.2558  -56.6837 C.3       4 UNK        -0.1967 
     54 N          32.8799  -51.0284  -54.9452 N.am      4 UNK        -0.4237 
     55 C          32.5782  -50.0090  -54.1248 C.2       3 UNK         0.4908 
     56 O          32.3906  -48.8534  -54.5095 O.2       3 UNK        -0.5102 
     57 CA         32.4449  -50.3464  -52.6305 C.3       3 UNK         0.0241 
     58 CB         33.5905  -51.2458  -52.1223 C.3       3 UNK        -0.1971 
     59 N          32.4265  -49.1184  -51.8335 N.am      3 UNK        -0.4139 
     60 C          31.6384  -48.8984  -50.7714 C.2       2 UNK         0.5016 
     61 O          30.7905  -49.7030  -50.3815 O.2       2 UNK        -0.5319 
     62 CA         31.8283  -47.5904  -49.9753 C.3       2 UNK         0.0286 
     63 CB         32.3290  -47.8950  -48.5525 C.3       2 UNK        -0.1963 
     64 N          32.7706  -46.6664  -50.6084 N.am      2 UNK        -0.4790 
     65 C          32.4388  -45.7170  -51.4930 C.2       1 UNK         0.5024 
     66 O          31.2727  -45.4373  -51.7678 O.2       1 UNK        -0.4888 
     67 H67        37.4545  -47.1320  -52.8202 H         1 UNK         0.0892 
     68 H68        37.3574  -46.0987  -51.3928 H         1 UNK         0.0892 
     69 H69        36.9538  -47.8130  -51.2703 H         1 UNK         0.0892 
     70 H70        35.5363  -44.7963  -51.4197 H         1 UNK         0.3107 
     71 H71        33.4223  -45.1495  -53.2606 H         1 UNK         0.0773 
     72 H72        33.6504  -43.1843  -50.9219 H         1 UNK         0.0680 
     73 H73        32.4716  -43.0642  -52.1992 H         1 UNK         0.0680 
     74 H74        33.0502  -40.9142  -53.7948 H         1 UNK         0.0650 
     75 H75        34.2784  -41.2247  -54.9987 H         1 UNK         0.0650 
     76 H76        34.3234  -44.0213  -55.5331 H         1 UNK         0.1397 
     77 H77        30.3709  -45.3576  -56.5276 H         1 UNK         0.1363 
     78 H78        30.9221  -41.6107  -54.5355 H         1 UNK         0.1355 
     79 H79        28.5642  -43.5620  -56.5127 H         1 UNK         0.0707 
     80 H80        28.7570  -42.1571  -55.4944 H         1 UNK         0.0707 
     81 H81        26.3388  -42.7974  -55.0449 H         1 UNK         0.1034 
     82 H82        26.0542  -43.4111  -53.4461 H         1 UNK         0.1034 
     83 H83        25.7977  -45.7363  -54.3737 H         1 UNK         0.0482 
     84 H84        23.6204  -45.5979  -56.6397 H         1 UNK         0.3460 
     85 H85        22.2583  -44.9858  -55.7327 H         1 UNK         0.3460 
     86 H86        26.3533  -46.2538  -56.4325 H         1 UNK         0.2989 
     87 H87        25.8362  -44.8267  -59.5755 H         1 UNK         0.0559 
     88 H88        28.6232  -45.1522  -58.3432 H         1 UNK         0.0848 
     89 H89        28.0244  -43.7129  -59.1542 H         1 UNK         0.0848 
     90 H90        28.2446  -45.1985  -60.0635 H         1 UNK         0.0848 
     91 H91        27.2626  -47.1694  -58.7163 H         1 UNK         0.3144 
     92 H92        24.3332  -49.2804  -58.9009 H         1 UNK         0.0727 
     93 H93        26.9283  -48.9445  -60.5004 H         1 UNK         0.0790 
     94 H94        25.3001  -48.8587  -61.1620 H         1 UNK         0.0790 
     95 H95        25.8902  -50.3678  -60.4851 H         1 UNK         0.0790 
     96 H96        27.1276  -49.0473  -57.8339 H         1 UNK         0.3215 
     97 H97        26.3032  -51.0304  -55.0846 H         1 UNK         0.0863 
     98 H98        28.0819  -52.0804  -57.3558 H         1 UNK         0.0808 
     99 H99        26.7468  -52.9579  -56.6200 H         1 UNK         0.0808 
    100 H100       28.1685  -52.5713  -55.6647 H         1 UNK         0.0808 
    101 H101       28.8333  -50.1124  -56.0783 H         1 UNK         0.3118 
    102 H102       28.5311  -46.7303  -55.4309 H         1 UNK         0.0546 
    103 H103       30.3487  -46.9600  -53.7221 H         1 UNK         0.0828 
    104 H104       29.8371  -48.6177  -53.4033 H         1 UNK         0.0828 
    105 H105       28.7625  -47.2736  -53.0403 H         1 UNK         0.0828 
    106 H106       30.8800  -48.2556  -55.7306 H         1 UNK         0.3005 
    107 H107       30.6852  -48.9152  -59.1679 H         1 UNK         0.1257 
    108 H108       30.8946  -46.1722  -58.9044 H         1 UNK         0.0775 
    109 H109       31.7720  -47.1467  -60.0177 H         1 UNK         0.0775 
    110 H110       32.3657  -46.9622  -56.1468 H         1 UNK         0.0840 
    111 H111       33.9621  -46.3187  -56.0505 H         1 UNK         0.0840 
    112 H112       33.0025  -48.7182  -57.6241 H         1 UNK         0.2987 
    113 H113       33.1965  -51.9902  -56.7478 H         1 UNK         0.0785 
    114 H114       35.2856  -50.7910  -56.2150 H         1 UNK         0.0798 
    115 H115       34.6698  -50.2246  -57.7537 H         1 UNK         0.0798 
    116 H116       34.4829  -49.2321  -56.3070 H         1 UNK         0.0798 
    117 H117       32.9614  -51.9501  -54.5399 H         1 UNK         0.3079 
    118 H118       31.4977  -50.8775  -52.5162 H         1 UNK         0.0794 
    119 H119       33.5062  -51.4223  -51.0498 H         1 UNK         0.0786 
    120 H120       34.5654  -50.7920  -52.3075 H         1 UNK         0.0786 
    121 H121       33.5829  -52.2243  -52.6027 H         1 UNK         0.0786 
    122 H122       33.0639  -48.3937  -52.1546 H         1 UNK         0.3032 
    123 H123       30.8463  -47.1180  -49.8967 H         1 UNK         0.1094 
    124 H124       32.4245  -46.9835  -47.9621 H         1 UNK         0.0794 
    125 H125       31.6337  -48.5485  -48.0237 H         1 UNK         0.0794 
    126 H126       33.2995  -48.3927  -48.5632 H         1 UNK         0.0794 
    127 H127       33.7528  -46.8355  -50.4453 H         1 UNK         0.3016 
@<TRIPOS>BOND
     1    1    2 1    
     2    1   67 1    
     3    1   68 1    
     4    1   69 1    
     5    2    3 2    
     6    2    4 am   BACKBONE|DICT|INTERRES
     7    4    5 1    
     8    4   70 1    
     9    5    6 1    
    10    5   65 1    
    11    5   71 1    
    12    6    7 1    
    13    6   72 1    
    14    6   73 1    
    15    7    8 1    
    16    8    9 1    
    17    8   74 1    
    18    8   75 1    
    19    9   10 ar   
    20    9   14 ar   
    21   10   11 ar   
    22   10   76 1    
    23   11   12 ar   
    24   11   48 1    
    25   12   13 ar   
    26   12   77 1    
    27   13   14 ar   
    28   13   15 1    
    29   14   78 1    
    30   15   16 1    
    31   15   79 1    
    32   15   80 1    
    33   16   17 1    
    34   17   18 1    
    35   17   81 1    
    36   17   82 1    
    37   18   19 1    
    38   18   22 1    
    39   18   83 1    
    40   19   20 am   BACKBONE|DICT|INTERRES
    41   19   21 2    
    42   20   84 1    
    43   20   85 1    
    44   22   23 am   BACKBONE|DICT|INTERRES
    45   22   86 1    
    46   23   24 2    
    47   23   25 1    
    48   25   26 1    
    49   25   27 1    
    50   25   87 1    
    51   26   88 1    
    52   26   89 1    
    53   26   90 1    
    54   27   28 am   BACKBONE|DICT|INTERRES
    55   27   91 1    
    56   28   29 2    
    57   28   30 1    
    58   30   31 1    
    59   30   32 1    
    60   30   92 1    
    61   31   93 1    
    62   31   94 1    
    63   31   95 1    
    64   32   33 am   BACKBONE|DICT|INTERRES
    65   32   96 1    
    66   33   34 2    
    67   33   35 1    
    68   35   36 1    
    69   35   37 1    
    70   35   97 1    
    71   36   98 1    
    72   36   99 1    
    73   36  100 1    
    74   37   38 am   BACKBONE|DICT|INTERRES
    75   37  101 1    
    76   38   39 2    
    77   38   40 1    
    78   40   41 1    
    79   40   42 1    
    80   40  102 1    
    81   41  103 1    
    82   41  104 1    
    83   41  105 1    
    84   42   43 am   BACKBONE|DICT|INTERRES
    85   42  106 1    
    86   43   44 2    
    87   43   45 1    
    88   45   46 1    
    89   45   49 1    
    90   45  107 1    
    91   46   47 1    
    92   46  108 1    
    93   46  109 1    
    94   47   48 1    
    95   48  110 1    
    96   48  111 1    
    97   49   50 am   BACKBONE|DICT|INTERRES
    98   49  112 1    
    99   50   51 2    
   100   50   52 1    
   101   52   53 1    
   102   52   54 1    
   103   52  113 1    
   104   53  114 1    
   105   53  115 1    
   106   53  116 1    
   107   54   55 am   BACKBONE|DICT|INTERRES
   108   54  117 1    
   109   55   56 2    
   110   55   57 1    
   111   57   58 1    
   112   57   59 1    
   113   57  118 1    
   114   58  119 1    
   115   58  120 1    
   116   58  121 1    
   117   59   60 am   BACKBONE|DICT|INTERRES
   118   59  122 1    
   119   60   61 2    
   120   60   62 1    
   121   62   63 1    
   122   62   64 1    
   123   62  123 1    
   124   63  124 1    
   125   63  125 1    
   126   63  126 1    
   127   64   65 am   BACKBONE|DICT|INTERRES
   128   64  127 1    
   129   65   66 2    
@<TRIPOS>SUBSTRUCTURE
     1 UNK         1 GROUP             0       ****    0 ROOT    
