@<TRIPOS>MOLECULE
3R134
127   129    1
SMALL
USER_CHARGES


@<TRIPOS>ATOM
      1 CA         36.2834  -45.4467  -53.7314 C.3       0 UNK        -0.1968 
      2 C          36.3217  -45.5993  -52.2150 C.2       0 UNK         0.4852 
      3 O          37.3368  -46.0444  -51.6815 O.2       0 UNK        -0.5359 
      4 N          35.2593  -45.2551  -51.4763 N.am      1 UNK        -0.4300 
      5 CA         33.9590  -44.7526  -51.9371 C.3       1 UNK         0.0863 
      6 C6         33.7064  -43.2948  -51.4692 C.3       11 UNK        -0.0953 
      7 S7         34.8820  -42.1280  -52.2363 S.3       11 UNK        -0.2369 
      8 C8         33.7826  -41.0177  -53.1793 C.3       11 UNK         0.0226 
      9 C9         32.8733  -41.7339  -54.1746 C.ar      11 UNK        -0.0699 
     10 C10        33.3731  -42.7203  -55.0337 C.ar      11 UNK        -0.0804 
     11 C11        32.5249  -43.3692  -55.9341 C.ar      11 UNK        -0.0871 
     12 C12        31.1892  -42.9784  -56.0191 C.ar      11 UNK        -0.1008 
     13 C13        30.6626  -42.0174  -55.1529 C.ar      11 UNK        -0.0735 
     14 C14        31.5161  -41.3956  -54.2356 C.ar      11 UNK        -0.0945 
     15 C15        29.1811  -41.6473  -55.1974 C.3       11 UNK         0.0169 
     16 S16        28.0752  -43.1044  -55.1582 S.3       11 UNK        -0.2669 
     17 C17        27.9524  -43.5339  -56.9307 C.3       11 UNK        -0.0850 
     18 CA         26.4949  -43.7965  -57.3759 C.3       10 UNK         0.0855 
     19 C          26.3863  -43.7712  -58.9248 C.2       10 UNK         0.5543 
     20 N          25.7370  -42.7629  -59.4898 N.am      10 UNK        -0.7343 
     21 O          26.9319  -44.6302  -59.6135 O.2       10 UNK        -0.5027 
     22 N          26.0082  -45.0708  -56.8349 N.am      10 UNK        -0.4495 
     23 C          24.7286  -45.4622  -56.8518 C.2       10 UNK         0.4903 
     24 O          23.7898  -44.7323  -57.1761 O.2       10 UNK        -0.4860 
     25 CA         24.4738  -46.9277  -56.4563 C.3       9 UNK         0.0227 
     26 CB         23.0021  -47.3610  -56.6234 C.3       9 UNK        -0.1964 
     27 N          25.3759  -47.8449  -57.1619 N.am      9 UNK        -0.4231 
     28 C          25.4959  -48.0277  -58.4875 C.2       9 UNK         0.5014 
     29 O          24.7783  -47.4841  -59.3281 O.2       9 UNK        -0.5270 
     30 CA         26.6145  -48.9725  -58.9705 C.3       8 UNK         0.0284 
     31 CB         27.7986  -48.1544  -59.5117 C.3       8 UNK        -0.1977 
     32 N          27.1003  -49.8874  -57.9336 N.am      8 UNK        -0.4342 
     33 C          26.3984  -50.9148  -57.4340 C.2       8 UNK         0.5039 
     34 O          25.3023  -51.2716  -57.8673 O.2       8 UNK        -0.5547 
     35 CA         26.9989  -51.6365  -56.2157 C.3       7 UNK         0.0281 
     36 CB         27.9975  -52.7156  -56.6622 C.3       7 UNK        -0.1963 
     37 N          27.6478  -50.7200  -55.2720 N.am      7 UNK        -0.4444 
     38 C          27.0227  -49.7484  -54.5906 C.2       7 UNK         0.5104 
     39 O          25.8130  -49.5369  -54.6537 O.2       7 UNK        -0.5100 
     40 CA         27.8966  -48.8219  -53.7327 C.3       6 UNK         0.0396 
     41 CB         28.2071  -49.4606  -52.3697 C.3       6 UNK        -0.1801 
     42 N          29.1421  -48.4657  -54.4109 N.am      6 UNK        -0.4747 
     43 C          29.2398  -47.6001  -55.4319 C.2       6 UNK         0.5012 
     44 O          28.2844  -46.9793  -55.9036 O.2       6 UNK        -0.5003 
     45 CA         30.6488  -47.4286  -56.0393 C.3       5 UNK         0.0782 
     46 C46        31.4446  -46.3680  -55.2401 C.3       11 UNK        -0.0868 
     47 S47        33.1416  -46.0826  -55.8652 S.3       11 UNK        -0.2515 
     48 C48        33.0254  -44.5173  -56.7983 C.3       11 UNK         0.0199 
     49 N          31.3583  -48.7111  -56.1191 N.am      5 UNK        -0.4607 
     50 C          30.9885  -49.7342  -56.9029 C.2       4 UNK         0.5031 
     51 O          30.0098  -49.7034  -57.6480 O.2       4 UNK        -0.5119 
     52 CA         31.8153  -51.0285  -56.8041 C.3       4 UNK         0.0263 
     53 CB         33.0269  -50.9635  -57.7468 C.3       4 UNK        -0.1967 
     54 N          32.2690  -51.3289  -55.4433 N.am      4 UNK        -0.4237 
     55 C          31.4657  -51.5008  -54.3844 C.2       3 UNK         0.4908 
     56 O          30.2374  -51.4603  -54.4457 O.2       3 UNK        -0.5102 
     57 CA         32.1280  -51.6924  -53.0097 C.3       3 UNK         0.0241 
     58 CB         33.6011  -52.1578  -53.0781 C.3       3 UNK        -0.1971 
     59 N          32.0001  -50.4819  -52.1876 N.am      3 UNK        -0.4139 
     60 C          32.4520  -49.2556  -52.4905 C.2       2 UNK         0.5016 
     61 O          33.0340  -48.9793  -53.5444 O.2       2 UNK        -0.5319 
     62 CA         32.2145  -48.1479  -51.4514 C.3       2 UNK         0.0286 
     63 CB         32.5339  -48.6018  -50.0108 C.3       2 UNK        -0.1963 
     64 N          33.0537  -47.0101  -51.8136 N.am      2 UNK        -0.4790 
     65 C          32.8862  -45.7381  -51.4379 C.2       1 UNK         0.5024 
     66 O          31.9710  -45.3587  -50.7056 O.2       1 UNK        -0.4888 
     67 H67        37.2595  -45.6657  -54.1634 H         1 UNK         0.0892 
     68 H68        35.5645  -46.1384  -54.1678 H         1 UNK         0.0892 
     69 H69        36.0195  -44.4294  -54.0152 H         1 UNK         0.0892 
     70 H70        35.3168  -45.3938  -50.4770 H         1 UNK         0.3107 
     71 H71        33.8861  -44.7728  -53.0248 H         1 UNK         0.0773 
     72 H72        33.8015  -43.2148  -50.3849 H         1 UNK         0.0680 
     73 H73        32.6873  -42.9846  -51.7069 H         1 UNK         0.0680 
     74 H74        34.3969  -40.2993  -53.7234 H         1 UNK         0.0650 
     75 H75        33.1925  -40.4401  -52.4661 H         1 UNK         0.0650 
     76 H76        34.4154  -43.0005  -54.9851 H         1 UNK         0.1397 
     77 H77        30.5535  -43.4682  -56.7373 H         1 UNK         0.1363 
     78 H78        31.1227  -40.6415  -53.5675 H         1 UNK         0.1355 
     79 H79        28.9290  -41.0236  -54.3385 H         1 UNK         0.0707 
     80 H80        28.9815  -41.0370  -56.0789 H         1 UNK         0.0707 
     81 H81        28.5656  -44.4152  -57.1282 H         1 UNK         0.1034 
     82 H82        28.3863  -42.7245  -57.5209 H         1 UNK         0.1034 
     83 H83        25.8664  -42.9986  -56.9743 H         1 UNK         0.0482 
     84 H84        25.2896  -42.0529  -58.9309 H         1 UNK         0.3460 
     85 H85        25.6734  -42.7232  -60.4951 H         1 UNK         0.3460 
     86 H86        26.7210  -45.7375  -56.5581 H         1 UNK         0.2989 
     87 H87        24.7229  -47.0080  -55.3972 H         1 UNK         0.0559 
     88 H88        22.3427  -46.7451  -56.0107 H         1 UNK         0.0848 
     89 H89        22.8582  -48.3964  -56.3144 H         1 UNK         0.0848 
     90 H90        22.6649  -47.2687  -57.6562 H         1 UNK         0.0848 
     91 H91        26.0031  -48.3661  -56.5630 H         1 UNK         0.3144 
     92 H92        26.2084  -49.5707  -59.7889 H         1 UNK         0.0727 
     93 H93        28.5717  -48.8002  -59.9283 H         1 UNK         0.0790 
     94 H94        28.2550  -47.5436  -58.7316 H         1 UNK         0.0790 
     95 H95        27.4773  -47.4784  -60.3054 H         1 UNK         0.0790 
     96 H96        28.0412  -49.7216  -57.5849 H         1 UNK         0.3215 
     97 H97        26.1801  -52.1274  -55.6853 H         1 UNK         0.0863 
     98 H98        28.4025  -53.2608  -55.8094 H         1 UNK         0.0808 
     99 H99        28.8334  -52.2861  -57.2139 H         1 UNK         0.0808 
    100 H100       27.5163  -53.4446  -57.3156 H         1 UNK         0.0808 
    101 H101       28.6406  -50.8695  -55.0987 H         1 UNK         0.3118 
    102 H102       27.3324  -47.9040  -53.5522 H         1 UNK         0.0546 
    103 H103       28.7861  -50.3789  -52.4694 H         1 UNK         0.0828 
    104 H104       27.2863  -49.7147  -51.8429 H         1 UNK         0.0828 
    105 H105       28.7649  -48.7776  -51.7295 H         1 UNK         0.0828 
    106 H106       29.9664  -48.9882  -54.1519 H         1 UNK         0.3005 
    107 H107       30.5157  -47.0598  -57.0589 H         1 UNK         0.1257 
    108 H108       30.8901  -45.4325  -55.2048 H         1 UNK         0.0775 
    109 H109       31.5394  -46.6800  -54.1996 H         1 UNK         0.0775 
    110 H110       34.0101  -44.2704  -57.1977 H         1 UNK         0.0840 
    111 H111       32.3759  -44.6650  -57.6626 H         1 UNK         0.0840 
    112 H112       32.1599  -48.8182  -55.5064 H         1 UNK         0.2987 
    113 H113       31.1775  -51.8533  -57.1261 H         1 UNK         0.0785 
    114 H114       33.5736  -51.9066  -57.7572 H         1 UNK         0.0798 
    115 H115       33.7220  -50.1738  -57.4581 H         1 UNK         0.0798 
    116 H116       32.7123  -50.7621  -58.7719 H         1 UNK         0.0798 
    117 H117       33.2662  -51.3303  -55.2848 H         1 UNK         0.3079 
    118 H118       31.5590  -52.4758  -52.5065 H         1 UNK         0.0794 
    119 H119       33.7000  -53.0660  -53.6745 H         1 UNK         0.0786 
    120 H120       33.9798  -52.3896  -52.0825 H         1 UNK         0.0786 
    121 H121       34.2610  -51.4037  -53.5080 H         1 UNK         0.0786 
    122 H122       31.5147  -50.6069  -51.3104 H         1 UNK         0.3032 
    123 H123       31.1661  -47.8493  -51.5180 H         1 UNK         0.1094 
    124 H124       33.5538  -48.9795  -49.9261 H         1 UNK         0.0794 
    125 H125       32.4255  -47.7818  -49.3008 H         1 UNK         0.0794 
    126 H126       31.8598  -49.3915  -49.6782 H         1 UNK         0.0794 
    127 H127       33.7849  -47.2444  -52.4748 H         1 UNK         0.3016 
@<TRIPOS>BOND
     1    1    2 1    
     2    1   67 1    
     3    1   68 1    
     4    1   69 1    
     5    2    3 2    
     6    2    4 am   BACKBONE|DICT|INTERRES
     7    4    5 1    
     8    4   70 1    
     9    5    6 1    
    10    5   65 1    
    11    5   71 1    
    12    6    7 1    
    13    6   72 1    
    14    6   73 1    
    15    7    8 1    
    16    8    9 1    
    17    8   74 1    
    18    8   75 1    
    19    9   10 ar   
    20    9   14 ar   
    21   10   11 ar   
    22   10   76 1    
    23   11   12 ar   
    24   11   48 1    
    25   12   13 ar   
    26   12   77 1    
    27   13   14 ar   
    28   13   15 1    
    29   14   78 1    
    30   15   16 1    
    31   15   79 1    
    32   15   80 1    
    33   16   17 1    
    34   17   18 1    
    35   17   81 1    
    36   17   82 1    
    37   18   19 1    
    38   18   22 1    
    39   18   83 1    
    40   19   20 am   BACKBONE|DICT|INTERRES
    41   19   21 2    
    42   20   84 1    
    43   20   85 1    
    44   22   23 am   BACKBONE|DICT|INTERRES
    45   22   86 1    
    46   23   24 2    
    47   23   25 1    
    48   25   26 1    
    49   25   27 1    
    50   25   87 1    
    51   26   88 1    
    52   26   89 1    
    53   26   90 1    
    54   27   28 am   BACKBONE|DICT|INTERRES
    55   27   91 1    
    56   28   29 2    
    57   28   30 1    
    58   30   31 1    
    59   30   32 1    
    60   30   92 1    
    61   31   93 1    
    62   31   94 1    
    63   31   95 1    
    64   32   33 am   BACKBONE|DICT|INTERRES
    65   32   96 1    
    66   33   34 2    
    67   33   35 1    
    68   35   36 1    
    69   35   37 1    
    70   35   97 1    
    71   36   98 1    
    72   36   99 1    
    73   36  100 1    
    74   37   38 am   BACKBONE|DICT|INTERRES
    75   37  101 1    
    76   38   39 2    
    77   38   40 1    
    78   40   41 1    
    79   40   42 1    
    80   40  102 1    
    81   41  103 1    
    82   41  104 1    
    83   41  105 1    
    84   42   43 am   BACKBONE|DICT|INTERRES
    85   42  106 1    
    86   43   44 2    
    87   43   45 1    
    88   45   46 1    
    89   45   49 1    
    90   45  107 1    
    91   46   47 1    
    92   46  108 1    
    93   46  109 1    
    94   47   48 1    
    95   48  110 1    
    96   48  111 1    
    97   49   50 am   BACKBONE|DICT|INTERRES
    98   49  112 1    
    99   50   51 2    
   100   50   52 1    
   101   52   53 1    
   102   52   54 1    
   103   52  113 1    
   104   53  114 1    
   105   53  115 1    
   106   53  116 1    
   107   54   55 am   BACKBONE|DICT|INTERRES
   108   54  117 1    
   109   55   56 2    
   110   55   57 1    
   111   57   58 1    
   112   57   59 1    
   113   57  118 1    
   114   58  119 1    
   115   58  120 1    
   116   58  121 1    
   117   59   60 am   BACKBONE|DICT|INTERRES
   118   59  122 1    
   119   60   61 2    
   120   60   62 1    
   121   62   63 1    
   122   62   64 1    
   123   62  123 1    
   124   63  124 1    
   125   63  125 1    
   126   63  126 1    
   127   64   65 am   BACKBONE|DICT|INTERRES
   128   64  127 1    
   129   65   66 2    
@<TRIPOS>SUBSTRUCTURE
     1 UNK         1 GROUP             0       ****    0 ROOT    
