@<TRIPOS>MOLECULE
3R134
127   129    1
SMALL
USER_CHARGES


@<TRIPOS>ATOM
      1 CA         35.5452  -43.5023  -51.8386 C.3       0 UNK        -0.1968 
      2 C          36.0595  -44.7833  -52.4793 C.2       0 UNK         0.4852 
      3 O          37.1602  -45.2322  -52.1549 O.2       0 UNK        -0.5359 
      4 N          35.2737  -45.3686  -53.3909 N.am      1 UNK        -0.4300 
      5 CA         35.5490  -46.6459  -54.0523 C.3       1 UNK         0.0863 
      6 C6         34.7201  -46.8278  -55.3545 C.3       11 UNK        -0.0953 
      7 S7         32.9546  -46.3614  -55.2225 S.3       11 UNK        -0.2369 
      8 C8         33.0095  -44.7156  -56.0047 C.3       11 UNK         0.0226 
      9 C9         31.6975  -43.9509  -55.8888 C.ar      11 UNK        -0.0699 
     10 C10        31.1346  -43.6867  -54.6362 C.ar      11 UNK        -0.0804 
     11 C11        29.9552  -42.9411  -54.5260 C.ar      11 UNK        -0.0871 
     12 C12        29.3565  -42.4311  -55.6821 C.ar      11 UNK        -0.1008 
     13 C13        29.9163  -42.6755  -56.9391 C.ar      11 UNK        -0.0735 
     14 C14        31.0793  -43.4451  -57.0361 C.ar      11 UNK        -0.0945 
     15 C15        29.2999  -42.0696  -58.1914 C.3       11 UNK         0.0169 
     16 S16        27.9987  -43.1277  -58.8943 S.3       11 UNK        -0.2669 
     17 C17        26.5103  -42.5837  -57.9817 C.3       11 UNK        -0.0850 
     18 CA         26.0458  -43.5853  -56.8844 C.3       10 UNK         0.0855 
     19 C          24.8416  -43.0498  -56.0544 C.2       10 UNK         0.5543 
     20 N          23.9147  -43.8925  -55.6152 N.am      10 UNK        -0.7343 
     21 O          24.7614  -41.8568  -55.7728 O.2       10 UNK        -0.5027 
     22 N          25.8886  -44.9662  -57.3677 N.am      10 UNK        -0.4495 
     23 C          25.0975  -45.4036  -58.3563 C.2       10 UNK         0.4903 
     24 O          24.3381  -44.6839  -59.0068 O.2       10 UNK        -0.4860 
     25 CA         25.1695  -46.9164  -58.6469 C.3       9 UNK         0.0227 
     26 CB         24.5872  -47.3076  -60.0219 C.3       9 UNK        -0.1964 
     27 N          26.5247  -47.4480  -58.4540 N.am      9 UNK        -0.4231 
     28 C          27.6301  -47.1802  -59.1684 C.2       9 UNK         0.5014 
     29 O          27.6380  -46.5458  -60.2236 O.2       9 UNK        -0.5270 
     30 CA         28.9685  -47.6958  -58.6009 C.3       8 UNK         0.0284 
     31 CB         29.7578  -46.5422  -57.9594 C.3       8 UNK        -0.1977 
     32 N          28.8083  -48.7676  -57.6145 N.am      8 UNK        -0.4342 
     33 C          28.4472  -50.0243  -57.9086 C.2       8 UNK         0.5039 
     34 O          28.2829  -50.4419  -59.0553 O.2       8 UNK        -0.5547 
     35 CA         28.2010  -50.9652  -56.7203 C.3       7 UNK         0.0281 
     36 CB         29.5065  -51.6542  -56.3044 C.3       7 UNK        -0.1963 
     37 N          27.6247  -50.2595  -55.5719 N.am      7 UNK        -0.4444 
     38 C          26.3364  -49.8945  -55.4931 C.2       7 UNK         0.5104 
     39 O          25.5006  -50.1479  -56.3603 O.2       7 UNK        -0.5100 
     40 CA         25.9051  -49.0839  -54.2578 C.3       6 UNK         0.0396 
     41 CB         25.4948  -50.0250  -53.1145 C.3       6 UNK        -0.1801 
     42 N          26.9292  -48.1538  -53.7780 N.am      6 UNK        -0.4747 
     43 C          27.4139  -47.1142  -54.4734 C.2       6 UNK         0.5012 
     44 O          27.0351  -46.8155  -55.6044 O.2       6 UNK        -0.5003 
     45 CA         28.5334  -46.2906  -53.8088 C.3       5 UNK         0.0782 
     46 C46        27.9198  -45.0909  -53.0416 C.3       11 UNK        -0.0868 
     47 S47        29.1569  -44.1187  -52.1149 S.3       11 UNK        -0.2515 
     48 C48        29.3497  -42.6381  -53.1601 C.3       11 UNK         0.0199 
     49 N          29.4152  -47.1017  -52.9596 N.am      5 UNK        -0.4607 
     50 C          30.1279  -48.1662  -53.3498 C.2       4 UNK         0.5031 
     51 O          30.0597  -48.6591  -54.4791 O.2       4 UNK        -0.5119 
     52 CA         31.0502  -48.7556  -52.2694 C.3       4 UNK         0.0263 
     53 CB         30.2457  -49.4046  -51.1224 C.3       4 UNK        -0.1967 
     54 N          32.0696  -49.6632  -52.8059 N.am      4 UNK        -0.4237 
     55 C          31.9243  -50.9117  -53.2799 C.2       3 UNK         0.4908 
     56 O          30.8651  -51.5393  -53.2669 O.2       3 UNK        -0.5102 
     57 CA         33.1763  -51.5968  -53.8683 C.3       3 UNK         0.0241 
     58 CB         33.0496  -51.7512  -55.3928 C.3       3 UNK        -0.1971 
     59 N          34.4239  -50.8888  -53.5727 N.am      3 UNK        -0.4139 
     60 C          35.0555  -50.9068  -52.3914 C.2       2 UNK         0.5016 
     61 O          34.6998  -51.5926  -51.4326 O.2       2 UNK        -0.5319 
     62 CA         36.2784  -49.9827  -52.2476 C.3       2 UNK         0.0286 
     63 CB         37.5772  -50.7705  -52.4845 C.3       2 UNK        -0.1963 
     64 N          36.2562  -48.8095  -53.1332 N.am      2 UNK        -0.4790 
     65 C          35.3551  -47.8178  -53.0702 C.2       1 UNK         0.5024 
     66 O          34.3926  -47.8206  -52.2996 O.2       1 UNK        -0.4888 
     67 H67        35.4506  -43.6341  -50.7611 H         1 UNK         0.0892 
     68 H68        36.2417  -42.6848  -52.0226 H         1 UNK         0.0892 
     69 H69        34.5708  -43.2119  -52.2313 H         1 UNK         0.0892 
     70 H70        34.3582  -44.9879  -53.5790 H         1 UNK         0.3107 
     71 H71        36.6024  -46.6373  -54.3416 H         1 UNK         0.0773 
     72 H72        34.7759  -47.8577  -55.7120 H         1 UNK         0.0680 
     73 H73        35.1756  -46.2331  -56.1478 H         1 UNK         0.0680 
     74 H74        33.2887  -44.8422  -57.0519 H         1 UNK         0.0650 
     75 H75        33.7979  -44.1180  -55.5461 H         1 UNK         0.0650 
     76 H76        31.6165  -44.0618  -53.7439 H         1 UNK         0.1397 
     77 H77        28.4624  -41.8277  -55.6057 H         1 UNK         0.1363 
     78 H78        31.5172  -43.6278  -58.0078 H         1 UNK         0.1355 
     79 H79        28.9111  -41.0721  -57.9825 H         1 UNK         0.0707 
     80 H80        30.0726  -41.9313  -58.9492 H         1 UNK         0.0707 
     81 H81        26.7000  -41.6026  -57.5440 H         1 UNK         0.1034 
     82 H82        25.7113  -42.4258  -58.7075 H         1 UNK         0.1034 
     83 H83        26.8550  -43.6529  -56.1581 H         1 UNK         0.0482 
     84 H84        23.9773  -44.8740  -55.8315 H         1 UNK         0.3460 
     85 H85        23.1438  -43.5408  -55.0697 H         1 UNK         0.3460 
     86 H86        26.4236  -45.6600  -56.8499 H         1 UNK         0.2989 
     87 H87        24.5545  -47.3977  -57.8853 H         1 UNK         0.0559 
     88 H88        25.0908  -46.7916  -60.8396 H         1 UNK         0.0848 
     89 H89        23.5292  -47.0505  -60.0829 H         1 UNK         0.0848 
     90 H90        24.6706  -48.3800  -60.1979 H         1 UNK         0.0848 
     91 H91        26.6643  -47.9468  -57.5851 H         1 UNK         0.3144 
     92 H92        29.5526  -48.0859  -59.4371 H         1 UNK         0.0727 
     93 H93        29.2065  -46.0763  -57.1422 H         1 UNK         0.0790 
     94 H94        29.9629  -45.7604  -58.6919 H         1 UNK         0.0790 
     95 H95        30.7179  -46.8792  -57.5678 H         1 UNK         0.0790 
     96 H96        28.9608  -48.5264  -56.6432 H         1 UNK         0.3215 
     97 H97        27.4996  -51.7374  -57.0445 H         1 UNK         0.0863 
     98 H98        29.3429  -52.3592  -55.4892 H         1 UNK         0.0808 
     99 H99        30.2512  -50.9287  -55.9765 H         1 UNK         0.0808 
    100 H100       29.9372  -52.2125  -57.1366 H         1 UNK         0.0808 
    101 H101       28.2672  -49.9691  -54.8441 H         1 UNK         0.3118 
    102 H102       25.0316  -48.4930  -54.5418 H         1 UNK         0.0546 
    103 H103       26.3348  -50.6250  -52.7622 H         1 UNK         0.0828 
    104 H104       24.7150  -50.7156  -53.4390 H         1 UNK         0.0828 
    105 H105       25.0981  -49.4691  -52.2648 H         1 UNK         0.0828 
    106 H106       27.3096  -48.3273  -52.8588 H         1 UNK         0.3005 
    107 H107       29.1543  -45.8963  -54.6165 H         1 UNK         0.1257 
    108 H108       27.1781  -45.4384  -52.3195 H         1 UNK         0.0775 
    109 H109       27.3843  -44.4322  -53.7283 H         1 UNK         0.0775 
    110 H110       28.3789  -42.1501  -53.2609 H         1 UNK         0.0840 
    111 H111       29.9968  -41.9281  -52.6435 H         1 UNK         0.0840 
    112 H112       29.5413  -46.7513  -52.0208 H         1 UNK         0.2987 
    113 H113       31.6122  -47.9197  -51.8494 H         1 UNK         0.0785 
    114 H114       29.6460  -48.6640  -50.5926 H         1 UNK         0.0798 
    115 H115       30.9058  -49.8664  -50.3880 H         1 UNK         0.0798 
    116 H116       29.5601  -50.1709  -51.4854 H         1 UNK         0.0798 
    117 H117       32.9920  -49.2469  -52.8598 H         1 UNK         0.3079 
    118 H118       33.2363  -52.5954  -53.4298 H         1 UNK         0.0794 
    119 H119       32.2028  -52.3890  -55.6467 H         1 UNK         0.0786 
    120 H120       33.9369  -52.2165  -55.8225 H         1 UNK         0.0786 
    121 H121       32.8988  -50.7898  -55.8860 H         1 UNK         0.0786 
    122 H122       34.8030  -50.3057  -54.3043 H         1 UNK         0.3032 
    123 H123       36.2818  -49.6191  -51.2172 H         1 UNK         0.1094 
    124 H124       38.4564  -50.1564  -52.2881 H         1 UNK         0.0794 
    125 H125       37.6357  -51.6354  -51.8218 H         1 UNK         0.0794 
    126 H126       37.6457  -51.1400  -53.5085 H         1 UNK         0.0794 
    127 H127       37.0158  -48.7342  -53.7958 H         1 UNK         0.3016 
@<TRIPOS>BOND
     1    1    2 1    
     2    1   67 1    
     3    1   68 1    
     4    1   69 1    
     5    2    3 2    
     6    2    4 am   BACKBONE|DICT|INTERRES
     7    4    5 1    
     8    4   70 1    
     9    5    6 1    
    10    5   65 1    
    11    5   71 1    
    12    6    7 1    
    13    6   72 1    
    14    6   73 1    
    15    7    8 1    
    16    8    9 1    
    17    8   74 1    
    18    8   75 1    
    19    9   10 ar   
    20    9   14 ar   
    21   10   11 ar   
    22   10   76 1    
    23   11   12 ar   
    24   11   48 1    
    25   12   13 ar   
    26   12   77 1    
    27   13   14 ar   
    28   13   15 1    
    29   14   78 1    
    30   15   16 1    
    31   15   79 1    
    32   15   80 1    
    33   16   17 1    
    34   17   18 1    
    35   17   81 1    
    36   17   82 1    
    37   18   19 1    
    38   18   22 1    
    39   18   83 1    
    40   19   20 am   BACKBONE|DICT|INTERRES
    41   19   21 2    
    42   20   84 1    
    43   20   85 1    
    44   22   23 am   BACKBONE|DICT|INTERRES
    45   22   86 1    
    46   23   24 2    
    47   23   25 1    
    48   25   26 1    
    49   25   27 1    
    50   25   87 1    
    51   26   88 1    
    52   26   89 1    
    53   26   90 1    
    54   27   28 am   BACKBONE|DICT|INTERRES
    55   27   91 1    
    56   28   29 2    
    57   28   30 1    
    58   30   31 1    
    59   30   32 1    
    60   30   92 1    
    61   31   93 1    
    62   31   94 1    
    63   31   95 1    
    64   32   33 am   BACKBONE|DICT|INTERRES
    65   32   96 1    
    66   33   34 2    
    67   33   35 1    
    68   35   36 1    
    69   35   37 1    
    70   35   97 1    
    71   36   98 1    
    72   36   99 1    
    73   36  100 1    
    74   37   38 am   BACKBONE|DICT|INTERRES
    75   37  101 1    
    76   38   39 2    
    77   38   40 1    
    78   40   41 1    
    79   40   42 1    
    80   40  102 1    
    81   41  103 1    
    82   41  104 1    
    83   41  105 1    
    84   42   43 am   BACKBONE|DICT|INTERRES
    85   42  106 1    
    86   43   44 2    
    87   43   45 1    
    88   45   46 1    
    89   45   49 1    
    90   45  107 1    
    91   46   47 1    
    92   46  108 1    
    93   46  109 1    
    94   47   48 1    
    95   48  110 1    
    96   48  111 1    
    97   49   50 am   BACKBONE|DICT|INTERRES
    98   49  112 1    
    99   50   51 2    
   100   50   52 1    
   101   52   53 1    
   102   52   54 1    
   103   52  113 1    
   104   53  114 1    
   105   53  115 1    
   106   53  116 1    
   107   54   55 am   BACKBONE|DICT|INTERRES
   108   54  117 1    
   109   55   56 2    
   110   55   57 1    
   111   57   58 1    
   112   57   59 1    
   113   57  118 1    
   114   58  119 1    
   115   58  120 1    
   116   58  121 1    
   117   59   60 am   BACKBONE|DICT|INTERRES
   118   59  122 1    
   119   60   61 2    
   120   60   62 1    
   121   62   63 1    
   122   62   64 1    
   123   62  123 1    
   124   63  124 1    
   125   63  125 1    
   126   63  126 1    
   127   64   65 am   BACKBONE|DICT|INTERRES
   128   64  127 1    
   129   65   66 2    
@<TRIPOS>SUBSTRUCTURE
     1 UNK         1 GROUP             0       ****    0 ROOT    
