@<TRIPOS>MOLECULE
3R134
127   129    1
SMALL
USER_CHARGES


@<TRIPOS>ATOM
      1 CA         35.8973  -42.7096  -51.1501 C.3       0 UNK        -0.1968 
      2 C          36.4597  -43.5653  -52.2757 C.2       0 UNK         0.4852 
      3 O          37.2211  -43.0635  -53.1042 O.2       0 UNK        -0.5359 
      4 N          36.0888  -44.8483  -52.3121 N.am      1 UNK        -0.4300 
      5 CA         36.5216  -45.8352  -53.2987 C.3       1 UNK         0.0863 
      6 C6         35.8027  -45.6861  -54.6700 C.3       11 UNK        -0.0953 
      7 S7         33.9828  -45.8492  -54.6098 S.3       11 UNK        -0.2369 
      8 C8         33.4814  -44.1027  -54.6762 C.3       11 UNK         0.0226 
      9 C9         31.9684  -43.9563  -54.6574 C.ar      11 UNK        -0.0699 
     10 C10        31.2805  -43.8914  -53.4410 C.ar      11 UNK        -0.0804 
     11 C11        29.8907  -43.7363  -53.4201 C.ar      11 UNK        -0.0871 
     12 C12        29.1918  -43.6517  -54.6264 C.ar      11 UNK        -0.1008 
     13 C13        29.8681  -43.7121  -55.8484 C.ar      11 UNK        -0.0735 
     14 C14        31.2571  -43.8672  -55.8579 C.ar      11 UNK        -0.0945 
     15 C15        29.0917  -43.6451  -57.1542 C.3       11 UNK         0.0169 
     16 S16        28.0428  -42.1579  -57.2578 S.3       11 UNK        -0.2669 
     17 C17        26.6640  -42.8450  -58.2254 C.3       11 UNK        -0.0850 
     18 CA         25.7160  -43.7235  -57.3412 C.3       10 UNK         0.0855 
     19 C          24.2990  -43.1126  -57.1287 C.2       10 UNK         0.5543 
     20 N          24.2192  -41.8271  -56.8118 N.am      10 UNK        -0.7343 
     21 O          23.2749  -43.7898  -57.2017 O.2       10 UNK        -0.5027 
     22 N          25.7131  -45.1305  -57.7667 N.am      10 UNK        -0.4495 
     23 C          25.3126  -45.5923  -58.9584 C.2       10 UNK         0.4903 
     24 O          24.8754  -44.8777  -59.8629 O.2       10 UNK        -0.4860 
     25 CA         25.4525  -47.1102  -59.1759 C.3       9 UNK         0.0227 
     26 CB         25.2492  -47.5331  -60.6462 C.3       9 UNK        -0.1964 
     27 N          26.7119  -47.6525  -58.6518 N.am      9 UNK        -0.4231 
     28 C          27.9678  -47.3292  -59.0046 C.2       9 UNK         0.5014 
     29 O          28.2456  -46.4716  -59.8438 O.2       9 UNK        -0.5270 
     30 CA         29.1223  -48.0879  -58.3124 C.3       8 UNK         0.0284 
     31 CB         29.9583  -47.1417  -57.4341 C.3       8 UNK        -0.1977 
     32 N          28.6782  -49.2140  -57.4887 N.am      8 UNK        -0.4342 
     33 C          28.1927  -50.3746  -57.9483 C.2       8 UNK         0.5039 
     34 O          28.1618  -50.6864  -59.1388 O.2       8 UNK        -0.5547 
     35 CA         27.5796  -51.3148  -56.8980 C.3       7 UNK         0.0281 
     36 CB         28.6616  -52.1989  -56.2568 C.3       7 UNK        -0.1963 
     37 N          26.8513  -50.5744  -55.8595 N.am      7 UNK        -0.4444 
     38 C          25.6855  -49.9406  -56.0579 C.2       7 UNK         0.5104 
     39 O          25.0819  -49.9451  -57.1296 O.2       7 UNK        -0.5100 
     40 CA         25.1098  -49.1365  -54.8797 C.3       6 UNK         0.0396 
     41 CB         24.2739  -50.0455  -53.9653 C.3       6 UNK        -0.1801 
     42 N          26.1455  -48.4675  -54.0905 N.am      6 UNK        -0.4747 
     43 C          26.8387  -47.3904  -54.4909 C.2       6 UNK         0.5012 
     44 O          26.6411  -46.8038  -55.5566 O.2       6 UNK        -0.5003 
     45 CA         27.9725  -46.9190  -53.5548 C.3       5 UNK         0.0782 
     46 C46        27.4463  -45.8737  -52.5404 C.3       11 UNK        -0.0868 
     47 S47        28.7496  -45.2730  -51.4086 S.3       11 UNK        -0.2515 
     48 C48        29.1453  -43.6358  -52.0973 C.3       11 UNK         0.0199 
     49 N          28.6636  -48.0329  -52.8890 N.am      5 UNK        -0.4607 
     50 C          29.3294  -49.0024  -53.5238 C.2       4 UNK         0.5031 
     51 O          29.3421  -49.1310  -54.7497 O.2       4 UNK        -0.5119 
     52 CA         30.0614  -50.0312  -52.6499 C.3       4 UNK         0.0263 
     53 CB         29.1509  -51.2347  -52.3570 C.3       4 UNK        -0.1967 
     54 N          31.2684  -50.4896  -53.3380 N.am      4 UNK        -0.4237 
     55 C          32.3835  -49.7566  -53.4400 C.2       3 UNK         0.4908 
     56 O          32.5801  -48.7157  -52.8091 O.2       3 UNK        -0.5102 
     57 CA         33.4176  -50.2441  -54.4666 C.3       3 UNK         0.0241 
     58 CB         33.0505  -49.7292  -55.8698 C.3       3 UNK        -0.1971 
     59 N          34.7637  -49.7826  -54.1293 N.am      3 UNK        -0.4139 
     60 C          35.5417  -50.3253  -53.1837 C.2       2 UNK         0.5016 
     61 O          35.2356  -51.3301  -52.5394 O.2       2 UNK        -0.5319 
     62 CA         36.9013  -49.6509  -52.9194 C.3       2 UNK         0.0286 
     63 CB         38.0299  -50.4282  -53.6174 C.3       2 UNK        -0.1963 
     64 N          36.9534  -48.2471  -53.3448 N.am      2 UNK        -0.4790 
     65 C          36.3748  -47.2375  -52.6801 C.2       1 UNK         0.5024 
     66 O          35.7595  -47.3818  -51.6194 O.2       1 UNK        -0.4888 
     67 H67        35.2361  -43.2789  -50.4969 H         1 UNK         0.0892 
     68 H68        36.7080  -42.3059  -50.5441 H         1 UNK         0.0892 
     69 H69        35.3301  -41.8751  -51.5615 H         1 UNK         0.0892 
     70 H70        35.5014  -45.2438  -51.5874 H         1 UNK         0.3107 
     71 H71        37.5920  -45.6889  -53.4602 H         1 UNK         0.0773 
     72 H72        36.1797  -46.4262  -55.3773 H         1 UNK         0.0680 
     73 H73        36.0587  -44.7219  -55.1111 H         1 UNK         0.0680 
     74 H74        33.8916  -43.6423  -55.5764 H         1 UNK         0.0650 
     75 H75        33.9135  -43.5665  -53.8311 H         1 UNK         0.0650 
     76 H76        31.8278  -43.9604  -52.5107 H         1 UNK         0.1397 
     77 H77        28.1172  -43.5325  -54.6185 H         1 UNK         0.1363 
     78 H78        31.7872  -43.9226  -56.7989 H         1 UNK         0.1355 
     79 H79        29.7608  -43.6651  -58.0158 H         1 UNK         0.0707 
     80 H80        28.4757  -44.5420  -57.2229 H         1 UNK         0.0707 
     81 H81        26.1345  -42.0228  -58.7100 H         1 UNK         0.1034 
     82 H82        27.0921  -43.4151  -59.0519 H         1 UNK         0.1034 
     83 H83        26.1200  -43.7791  -56.3296 H         1 UNK         0.0482 
     84 H84        25.0506  -41.2643  -56.7165 H         1 UNK         0.3460 
     85 H85        23.3128  -41.4152  -56.6534 H         1 UNK         0.3460 
     86 H86        26.0311  -45.7967  -57.0671 H         1 UNK         0.2989 
     87 H87        24.6572  -47.5719  -58.5893 H         1 UNK         0.0559 
     88 H88        24.2624  -47.2389  -61.0054 H         1 UNK         0.0848 
     89 H89        25.3256  -48.6143  -60.7611 H         1 UNK         0.0848 
     90 H90        25.9859  -47.0724  -61.3052 H         1 UNK         0.0848 
     91 H91        26.6031  -48.3638  -57.9417 H         1 UNK         0.3144 
     92 H92        29.7676  -48.4794  -59.1014 H         1 UNK         0.0727 
     93 H93        29.3694  -46.7305  -56.6142 H         1 UNK         0.0790 
     94 H94        30.3461  -46.3044  -58.0153 H         1 UNK         0.0790 
     95 H95        30.8153  -47.6563  -56.9991 H         1 UNK         0.0790 
     96 H96        28.7509  -49.0929  -56.4790 H         1 UNK         0.3215 
     97 H97        26.8687  -51.9670  -57.4105 H         1 UNK         0.0863 
     98 H98        28.2320  -52.8919  -55.5334 H         1 UNK         0.0808 
     99 H99        29.4241  -51.6079  -55.7497 H         1 UNK         0.0808 
    100 H100       29.1693  -52.7976  -57.0143 H         1 UNK         0.0808 
    101 H101       27.3108  -50.4682  -54.9674 H         1 UNK         0.3118 
    102 H102       24.4480  -48.3713  -55.2917 H         1 UNK         0.0546 
    103 H103       24.8791  -50.8268  -53.5038 H         1 UNK         0.0828 
    104 H104       23.4797  -50.5387  -54.5277 H         1 UNK         0.0828 
    105 H105       23.7965  -49.4752  -53.1683 H         1 UNK         0.0828 
    106 H106       26.3750  -48.8742  -53.1950 H         1 UNK         0.3005 
    107 H107       28.7133  -46.4295  -54.1909 H         1 UNK         0.1257 
    108 H108       26.6530  -46.3058  -51.9273 H         1 UNK         0.0775 
    109 H109       26.9943  -45.0255  -53.0574 H         1 UNK         0.0775 
    110 H110       28.2296  -43.0534  -52.2124 H         1 UNK         0.0840 
    111 H111       29.7568  -43.0919  -51.3757 H         1 UNK         0.0840 
    112 H112       28.7029  -47.9846  -51.8809 H         1 UNK         0.2987 
    113 H113       30.3440  -49.5636  -51.7039 H         1 UNK         0.0785 
    114 H114       28.2515  -50.9247  -51.8233 H         1 UNK         0.0798 
    115 H115       29.6579  -51.9697  -51.7314 H         1 UNK         0.0798 
    116 H116       28.8314  -51.7379  -53.2697 H         1 UNK         0.0798 
    117 H117       31.1707  -51.3085  -53.9196 H         1 UNK         0.3079 
    118 H118       33.4135  -51.3364  -54.4805 H         1 UNK         0.0794 
    119 H119       32.0560  -50.0667  -56.1661 H         1 UNK         0.0786 
    120 H120       33.7521  -50.0896  -56.6223 H         1 UNK         0.0786 
    121 H121       33.0453  -48.6389  -55.9093 H         1 UNK         0.0786 
    122 H122       35.0700  -48.9243  -54.5621 H         1 UNK         0.3032 
    123 H123       37.0756  -49.6929  -51.8414 H         1 UNK         0.1094 
    124 H124       39.0079  -50.0111  -53.3764 H         1 UNK         0.0794 
    125 H125       38.0388  -51.4720  -53.3000 H         1 UNK         0.0794 
    126 H126       37.9171  -50.4192  -54.7022 H         1 UNK         0.0794 
    127 H127       37.4585  -48.0495  -54.1975 H         1 UNK         0.3016 
@<TRIPOS>BOND
     1    1    2 1    
     2    1   67 1    
     3    1   68 1    
     4    1   69 1    
     5    2    3 2    
     6    2    4 am   BACKBONE|DICT|INTERRES
     7    4    5 1    
     8    4   70 1    
     9    5    6 1    
    10    5   65 1    
    11    5   71 1    
    12    6    7 1    
    13    6   72 1    
    14    6   73 1    
    15    7    8 1    
    16    8    9 1    
    17    8   74 1    
    18    8   75 1    
    19    9   10 ar   
    20    9   14 ar   
    21   10   11 ar   
    22   10   76 1    
    23   11   12 ar   
    24   11   48 1    
    25   12   13 ar   
    26   12   77 1    
    27   13   14 ar   
    28   13   15 1    
    29   14   78 1    
    30   15   16 1    
    31   15   79 1    
    32   15   80 1    
    33   16   17 1    
    34   17   18 1    
    35   17   81 1    
    36   17   82 1    
    37   18   19 1    
    38   18   22 1    
    39   18   83 1    
    40   19   20 am   BACKBONE|DICT|INTERRES
    41   19   21 2    
    42   20   84 1    
    43   20   85 1    
    44   22   23 am   BACKBONE|DICT|INTERRES
    45   22   86 1    
    46   23   24 2    
    47   23   25 1    
    48   25   26 1    
    49   25   27 1    
    50   25   87 1    
    51   26   88 1    
    52   26   89 1    
    53   26   90 1    
    54   27   28 am   BACKBONE|DICT|INTERRES
    55   27   91 1    
    56   28   29 2    
    57   28   30 1    
    58   30   31 1    
    59   30   32 1    
    60   30   92 1    
    61   31   93 1    
    62   31   94 1    
    63   31   95 1    
    64   32   33 am   BACKBONE|DICT|INTERRES
    65   32   96 1    
    66   33   34 2    
    67   33   35 1    
    68   35   36 1    
    69   35   37 1    
    70   35   97 1    
    71   36   98 1    
    72   36   99 1    
    73   36  100 1    
    74   37   38 am   BACKBONE|DICT|INTERRES
    75   37  101 1    
    76   38   39 2    
    77   38   40 1    
    78   40   41 1    
    79   40   42 1    
    80   40  102 1    
    81   41  103 1    
    82   41  104 1    
    83   41  105 1    
    84   42   43 am   BACKBONE|DICT|INTERRES
    85   42  106 1    
    86   43   44 2    
    87   43   45 1    
    88   45   46 1    
    89   45   49 1    
    90   45  107 1    
    91   46   47 1    
    92   46  108 1    
    93   46  109 1    
    94   47   48 1    
    95   48  110 1    
    96   48  111 1    
    97   49   50 am   BACKBONE|DICT|INTERRES
    98   49  112 1    
    99   50   51 2    
   100   50   52 1    
   101   52   53 1    
   102   52   54 1    
   103   52  113 1    
   104   53  114 1    
   105   53  115 1    
   106   53  116 1    
   107   54   55 am   BACKBONE|DICT|INTERRES
   108   54  117 1    
   109   55   56 2    
   110   55   57 1    
   111   57   58 1    
   112   57   59 1    
   113   57  118 1    
   114   58  119 1    
   115   58  120 1    
   116   58  121 1    
   117   59   60 am   BACKBONE|DICT|INTERRES
   118   59  122 1    
   119   60   61 2    
   120   60   62 1    
   121   62   63 1    
   122   62   64 1    
   123   62  123 1    
   124   63  124 1    
   125   63  125 1    
   126   63  126 1    
   127   64   65 am   BACKBONE|DICT|INTERRES
   128   64  127 1    
   129   65   66 2    
@<TRIPOS>SUBSTRUCTURE
     1 UNK         1 GROUP             0       ****    0 ROOT    
