@<TRIPOS>MOLECULE
3R134
127   129    1
SMALL
USER_CHARGES


@<TRIPOS>ATOM
      1 CA         36.6329  -44.9137  -51.7232 C.3       0 UNK        -0.1968 
      2 C          35.3278  -45.6877  -51.8295 C.2       0 UNK         0.4852 
      3 O          35.2248  -46.6083  -52.6428 O.2       0 UNK        -0.5359 
      4 N          34.3302  -45.3353  -51.0075 N.am      1 UNK        -0.4300 
      5 CA         32.9937  -45.9440  -50.9748 C.3       1 UNK         0.0863 
      6 C6         31.9227  -44.9597  -50.4367 C.3       11 UNK        -0.0953 
      7 S7         31.7384  -43.5153  -51.5341 S.3       11 UNK        -0.2369 
      8 C8         30.4723  -44.1499  -52.6737 C.3       11 UNK         0.0226 
      9 C9         30.5919  -43.5232  -54.0510 C.ar      11 UNK        -0.0699 
     10 C10        31.5729  -43.9740  -54.9400 C.ar      11 UNK        -0.0804 
     11 C11        31.6691  -43.4293  -56.2238 C.ar      11 UNK        -0.0871 
     12 C12        30.7796  -42.4238  -56.6123 C.ar      11 UNK        -0.1008 
     13 C13        29.7928  -41.9700  -55.7328 C.ar      11 UNK        -0.0735 
     14 C14        29.7072  -42.5182  -54.4500 C.ar      11 UNK        -0.0945 
     15 C15        28.8101  -40.8954  -56.1700 C.3       11 UNK         0.0169 
     16 S16        27.1901  -41.6054  -56.5961 S.3       11 UNK        -0.2669 
     17 C17        27.5780  -42.4942  -58.1438 C.3       11 UNK        -0.0850 
     18 CA         26.3829  -43.3554  -58.6301 C.3       10 UNK         0.0855 
     19 C          26.5723  -43.8746  -60.0863 C.2       10 UNK         0.5543 
     20 N          26.1607  -45.0920  -60.4217 N.am      10 UNK        -0.7343 
     21 O          27.0856  -43.1552  -60.9398 O.2       10 UNK        -0.5027 
     22 N          26.0817  -44.4339  -57.6747 N.am      10 UNK        -0.4495 
     23 C          24.8722  -44.7080  -57.1752 C.2       10 UNK         0.4903 
     24 O          23.8634  -44.0368  -57.4014 O.2       10 UNK        -0.4860 
     25 CA         24.7807  -45.9679  -56.2904 C.3       9 UNK         0.0227 
     26 CB         23.3257  -46.3778  -55.9810 C.3       9 UNK        -0.1964 
     27 N          25.5250  -47.1157  -56.8275 N.am      9 UNK        -0.4231 
     28 C          25.3974  -47.6723  -58.0445 C.2       9 UNK         0.5014 
     29 O          24.6551  -47.2310  -58.9229 O.2       9 UNK        -0.5270 
     30 CA         26.2534  -48.9120  -58.3694 C.3       8 UNK         0.0284 
     31 CB         27.3643  -48.5430  -59.3672 C.3       8 UNK        -0.1977 
     32 N          26.8596  -49.5475  -57.1983 N.am      8 UNK        -0.4342 
     33 C          26.1970  -50.1975  -56.2323 C.2       8 UNK         0.5039 
     34 O          24.9849  -50.4127  -56.2551 O.2       8 UNK        -0.5547 
     35 CA         27.0230  -50.6426  -55.0125 C.3       7 UNK         0.0281 
     36 CB         27.6174  -52.0414  -55.2405 C.3       7 UNK        -0.1963 
     37 N          28.0928  -49.6989  -54.6645 N.am      7 UNK        -0.4444 
     38 C          27.8974  -48.4332  -54.2632 C.2       7 UNK         0.5104 
     39 O          26.7893  -47.9106  -54.1487 O.2       7 UNK        -0.5100 
     40 CA         29.1564  -47.6016  -53.9786 C.3       6 UNK         0.0396 
     41 CB         29.7528  -47.9832  -52.6122 C.3       6 UNK        -0.1801 
     42 N          30.1601  -47.7754  -55.0299 N.am      6 UNK        -0.4747 
     43 C          30.0572  -47.2624  -56.2683 C.2       6 UNK         0.5012 
     44 O          29.1280  -46.5391  -56.6315 O.2       6 UNK        -0.5003 
     45 CA         31.1437  -47.6806  -57.2878 C.3       5 UNK         0.0782 
     46 C46        32.3568  -46.7164  -57.2744 C.3       11 UNK        -0.0868 
     47 S47        32.0949  -45.2247  -58.2889 S.3       11 UNK        -0.2515 
     48 C48        32.7323  -43.9146  -57.1966 C.3       11 UNK         0.0199 
     49 N          31.5868  -49.0670  -57.0998 N.am      5 UNK        -0.4607 
     50 C          30.8044  -50.1507  -57.1858 C.2       4 UNK         0.5031 
     51 O          29.6197  -50.1068  -57.5097 O.2       4 UNK        -0.5119 
     52 CA         31.4239  -51.5074  -56.7988 C.3       4 UNK         0.0263 
     53 CB         31.8479  -52.2757  -58.0601 C.3       4 UNK        -0.1967 
     54 N          32.5594  -51.4341  -55.8685 N.am      4 UNK        -0.4237 
     55 C          32.5471  -50.8498  -54.6619 C.2       3 UNK         0.4908 
     56 O          31.5722  -50.2472  -54.2013 O.2       3 UNK        -0.5102 
     57 CA         33.8540  -50.9120  -53.8608 C.3       3 UNK         0.0241 
     58 CB         34.9971  -50.1758  -54.5901 C.3       3 UNK        -0.1971 
     59 N          33.6287  -50.2932  -52.5592 N.am      3 UNK        -0.4139 
     60 C          34.3511  -50.4831  -51.4501 C.2       2 UNK         0.5016 
     61 O          35.2990  -51.2671  -51.3742 O.2       2 UNK        -0.5319 
     62 CA         33.9702  -49.6023  -50.2494 C.3       2 UNK         0.0286 
     63 CB         34.9878  -49.6677  -49.0932 C.3       2 UNK        -0.1963 
     64 N          33.8307  -48.2235  -50.7137 N.am      2 UNK        -0.4790 
     65 C          33.0009  -47.2970  -50.2274 C.2       1 UNK         0.5024 
     66 O          32.2717  -47.4814  -49.2518 O.2       1 UNK        -0.4888 
     67 H67        36.8699  -44.4472  -52.6789 H         1 UNK         0.0892 
     68 H68        37.4479  -45.5877  -51.4608 H         1 UNK         0.0892 
     69 H69        36.5824  -44.1306  -50.9668 H         1 UNK         0.0892 
     70 H70        34.4775  -44.5852  -50.3473 H         1 UNK         0.3107 
     71 H71        32.7167  -46.1832  -52.0037 H         1 UNK         0.0773 
     72 H72        32.1882  -44.6091  -49.4379 H         1 UNK         0.0680 
     73 H73        30.9502  -45.4468  -50.3393 H         1 UNK         0.0680 
     74 H74        30.5794  -45.2275  -52.7789 H         1 UNK         0.0650 
     75 H75        29.4826  -43.9786  -52.2474 H         1 UNK         0.0650 
     76 H76        32.2575  -44.7506  -54.6285 H         1 UNK         0.1397 
     77 H77        30.8475  -42.0042  -57.6070 H         1 UNK         0.1363 
     78 H78        28.9404  -42.1723  -53.7703 H         1 UNK         0.1355 
     79 H79        29.1983  -40.3336  -57.0212 H         1 UNK         0.0707 
     80 H80        28.6784  -40.1741  -55.3622 H         1 UNK         0.0707 
     81 H81        28.4558  -43.1256  -57.9988 H         1 UNK         0.1034 
     82 H82        27.8541  -41.7471  -58.8903 H         1 UNK         0.1034 
     83 H83        25.5238  -42.6860  -58.6986 H         1 UNK         0.0482 
     84 H84        25.6702  -45.6822  -59.7597 H         1 UNK         0.3460 
     85 H85        26.2842  -45.4028  -61.3718 H         1 UNK         0.3460 
     86 H86        26.8505  -45.0501  -57.4483 H         1 UNK         0.2989 
     87 H87        25.2597  -45.7107  -55.3446 H         1 UNK         0.0559 
     88 H88        23.2911  -47.2490  -55.3266 H         1 UNK         0.0848 
     89 H89        22.7730  -46.6190  -56.8897 H         1 UNK         0.0848 
     90 H90        22.7895  -45.5732  -55.4763 H         1 UNK         0.0848 
     91 H91        26.1695  -47.5469  -56.1745 H         1 UNK         0.3144 
     92 H92        25.5957  -49.6436  -58.8432 H         1 UNK         0.0727 
     93 H93        27.9395  -49.4203  -59.6637 H         1 UNK         0.0790 
     94 H94        28.0575  -47.8140  -58.9458 H         1 UNK         0.0790 
     95 H95        26.9475  -48.1090  -60.2770 H         1 UNK         0.0790 
     96 H96        27.8762  -49.5228  -57.1461 H         1 UNK         0.3215 
     97 H97        26.3445  -50.6956  -54.1582 H         1 UNK         0.0863 
     98 H98        28.1996  -52.3748  -54.3813 H         1 UNK         0.0808 
     99 H99        28.2621  -52.0687  -56.1188 H         1 UNK         0.0808 
    100 H100       26.8262  -52.7753  -55.3998 H         1 UNK         0.0808 
    101 H101       29.0444  -50.0318  -54.7392 H         1 UNK         0.3118 
    102 H102       28.8723  -46.5474  -53.9491 H         1 UNK         0.0546 
    103 H103       29.0871  -47.6808  -51.8029 H         1 UNK         0.0828 
    104 H104       30.7136  -47.5024  -52.4415 H         1 UNK         0.0828 
    105 H105       29.9057  -49.0587  -52.5165 H         1 UNK         0.0828 
    106 H106       30.9053  -48.4359  -54.8348 H         1 UNK         0.3005 
    107 H107       30.6781  -47.6424  -58.2756 H         1 UNK         0.1257 
    108 H108       33.2326  -47.2097  -57.6995 H         1 UNK         0.0775 
    109 H109       32.6416  -46.4527  -56.2547 H         1 UNK         0.0775 
    110 H110       33.6174  -44.2648  -56.6630 H         1 UNK         0.0840 
    111 H111       33.0680  -43.0802  -57.8144 H         1 UNK         0.0840 
    112 H112       32.5501  -49.1996  -56.8318 H         1 UNK         0.2987 
    113 H113       30.6428  -52.0824  -56.2989 H         1 UNK         0.0785 
    114 H114       32.6590  -51.7713  -58.5869 H         1 UNK         0.0798 
    115 H115       31.0149  -52.3700  -58.7587 H         1 UNK         0.0798 
    116 H116       32.1791  -53.2859  -57.8188 H         1 UNK         0.0798 
    117 H117       33.4067  -51.8965  -56.1665 H         1 UNK         0.3079 
    118 H118       34.1164  -51.9626  -53.7201 H         1 UNK         0.0794 
    119 H119       34.7571  -49.1241  -54.7541 H         1 UNK         0.0786 
    120 H120       35.2093  -50.6215  -55.5622 H         1 UNK         0.0786 
    121 H121       35.9232  -50.2156  -54.0162 H         1 UNK         0.0786 
    122 H122       32.8164  -49.6898  -52.5294 H         1 UNK         0.3032 
    123 H123       33.0056  -49.9641  -49.8856 H         1 UNK         0.1094 
    124 H124       35.9742  -49.3247  -49.4075 H         1 UNK         0.0794 
    125 H125       34.6717  -49.0522  -48.2509 H         1 UNK         0.0794 
    126 H126       35.0964  -50.6883  -48.7241 H         1 UNK         0.0794 
    127 H127       34.4048  -47.9592  -51.5129 H         1 UNK         0.3016 
@<TRIPOS>BOND
     1    1    2 1    
     2    1   67 1    
     3    1   68 1    
     4    1   69 1    
     5    2    3 2    
     6    2    4 am   BACKBONE|DICT|INTERRES
     7    4    5 1    
     8    4   70 1    
     9    5    6 1    
    10    5   65 1    
    11    5   71 1    
    12    6    7 1    
    13    6   72 1    
    14    6   73 1    
    15    7    8 1    
    16    8    9 1    
    17    8   74 1    
    18    8   75 1    
    19    9   10 ar   
    20    9   14 ar   
    21   10   11 ar   
    22   10   76 1    
    23   11   12 ar   
    24   11   48 1    
    25   12   13 ar   
    26   12   77 1    
    27   13   14 ar   
    28   13   15 1    
    29   14   78 1    
    30   15   16 1    
    31   15   79 1    
    32   15   80 1    
    33   16   17 1    
    34   17   18 1    
    35   17   81 1    
    36   17   82 1    
    37   18   19 1    
    38   18   22 1    
    39   18   83 1    
    40   19   20 am   BACKBONE|DICT|INTERRES
    41   19   21 2    
    42   20   84 1    
    43   20   85 1    
    44   22   23 am   BACKBONE|DICT|INTERRES
    45   22   86 1    
    46   23   24 2    
    47   23   25 1    
    48   25   26 1    
    49   25   27 1    
    50   25   87 1    
    51   26   88 1    
    52   26   89 1    
    53   26   90 1    
    54   27   28 am   BACKBONE|DICT|INTERRES
    55   27   91 1    
    56   28   29 2    
    57   28   30 1    
    58   30   31 1    
    59   30   32 1    
    60   30   92 1    
    61   31   93 1    
    62   31   94 1    
    63   31   95 1    
    64   32   33 am   BACKBONE|DICT|INTERRES
    65   32   96 1    
    66   33   34 2    
    67   33   35 1    
    68   35   36 1    
    69   35   37 1    
    70   35   97 1    
    71   36   98 1    
    72   36   99 1    
    73   36  100 1    
    74   37   38 am   BACKBONE|DICT|INTERRES
    75   37  101 1    
    76   38   39 2    
    77   38   40 1    
    78   40   41 1    
    79   40   42 1    
    80   40  102 1    
    81   41  103 1    
    82   41  104 1    
    83   41  105 1    
    84   42   43 am   BACKBONE|DICT|INTERRES
    85   42  106 1    
    86   43   44 2    
    87   43   45 1    
    88   45   46 1    
    89   45   49 1    
    90   45  107 1    
    91   46   47 1    
    92   46  108 1    
    93   46  109 1    
    94   47   48 1    
    95   48  110 1    
    96   48  111 1    
    97   49   50 am   BACKBONE|DICT|INTERRES
    98   49  112 1    
    99   50   51 2    
   100   50   52 1    
   101   52   53 1    
   102   52   54 1    
   103   52  113 1    
   104   53  114 1    
   105   53  115 1    
   106   53  116 1    
   107   54   55 am   BACKBONE|DICT|INTERRES
   108   54  117 1    
   109   55   56 2    
   110   55   57 1    
   111   57   58 1    
   112   57   59 1    
   113   57  118 1    
   114   58  119 1    
   115   58  120 1    
   116   58  121 1    
   117   59   60 am   BACKBONE|DICT|INTERRES
   118   59  122 1    
   119   60   61 2    
   120   60   62 1    
   121   62   63 1    
   122   62   64 1    
   123   62  123 1    
   124   63  124 1    
   125   63  125 1    
   126   63  126 1    
   127   64   65 am   BACKBONE|DICT|INTERRES
   128   64  127 1    
   129   65   66 2    
@<TRIPOS>SUBSTRUCTURE
     1 UNK         1 GROUP             0       ****    0 ROOT    
