@<TRIPOS>MOLECULE
3R134
127   129    1
SMALL
USER_CHARGES


@<TRIPOS>ATOM
      1 CA         36.5925  -46.9617  -56.8156 C.3       0 UNK        -0.1968 
      2 C          36.4003  -46.5320  -55.3685 C.2       0 UNK         0.4852 
      3 O          37.3868  -46.3157  -54.6637 O.2       0 UNK        -0.5359 
      4 N          35.1397  -46.4086  -54.9288 N.am      1 UNK        -0.4300 
      5 CA         34.7271  -46.0174  -53.5749 C.3       1 UNK         0.0863 
      6 C6         35.1100  -44.5528  -53.2154 C.3       11 UNK        -0.0953 
      7 S7         33.9076  -43.7903  -52.0693 S.3       11 UNK        -0.2369 
      8 C8         33.0295  -42.6151  -53.1476 C.3       11 UNK         0.0226 
      9 C9         32.0514  -43.3130  -54.0817 C.ar      11 UNK        -0.0699 
     10 C10        32.4842  -43.7927  -55.3201 C.ar      11 UNK        -0.0804 
     11 C11        31.5942  -44.4270  -56.1883 C.ar      11 UNK        -0.0871 
     12 C12        30.2487  -44.5486  -55.8269 C.ar      11 UNK        -0.1008 
     13 C13        29.8024  -44.0770  -54.5890 C.ar      11 UNK        -0.0735 
     14 C14        30.7097  -43.4650  -53.7178 C.ar      11 UNK        -0.0945 
     15 C15        28.3492  -44.2571  -54.1755 C.3       11 UNK         0.0169 
     16 S16        27.3698  -42.7375  -54.3779 S.3       11 UNK        -0.2669 
     17 C17        27.1700  -42.6085  -56.1888 C.3       11 UNK        -0.0850 
     18 CA         25.8210  -43.2057  -56.6771 C.3       10 UNK         0.0855 
     19 C          25.4295  -42.6869  -58.0941 C.2       10 UNK         0.5543 
     20 N          25.0341  -43.5301  -59.0407 N.am      10 UNK        -0.7343 
     21 O          25.4702  -41.4838  -58.3399 O.2       10 UNK        -0.5027 
     22 N          25.8185  -44.6734  -56.5639 N.am      10 UNK        -0.4495 
     23 C          24.7595  -45.4257  -56.2425 C.2       10 UNK         0.4903 
     24 O          23.6636  -44.9675  -55.9152 O.2       10 UNK        -0.4860 
     25 CA         24.9725  -46.9528  -56.3215 C.3       9 UNK         0.0227 
     26 CB         23.6506  -47.7475  -56.2902 C.3       9 UNK        -0.1964 
     27 N          25.7908  -47.3653  -57.4709 N.am      9 UNK        -0.4231 
     28 C          25.5529  -47.1178  -58.7698 C.2       9 UNK         0.5014 
     29 O          24.5929  -46.4674  -59.1834 O.2       9 UNK        -0.5270 
     30 CA         26.5747  -47.6588  -59.7792 C.3       8 UNK         0.0284 
     31 CB         27.7614  -46.6884  -59.9050 C.3       8 UNK        -0.1977 
     32 N          27.0607  -48.9845  -59.3922 N.am      8 UNK        -0.4342 
     33 C          26.5401  -50.1422  -59.8230 C.2       8 UNK         0.5039 
     34 O          25.6227  -50.2187  -60.6414 O.2       8 UNK        -0.5547 
     35 CA         27.1448  -51.4423  -59.2582 C.3       7 UNK         0.0281 
     36 CB         28.2451  -51.9716  -60.1925 C.3       7 UNK        -0.1963 
     37 N          27.6915  -51.2893  -57.9076 N.am      7 UNK        -0.4444 
     38 C          26.9526  -51.1112  -56.8039 C.2       7 UNK         0.5104 
     39 O          25.7221  -51.1377  -56.7917 O.2       7 UNK        -0.5100 
     40 CA         27.7113  -50.8253  -55.4933 C.3       6 UNK         0.0396 
     41 CB         27.8911  -52.1197  -54.6851 C.3       6 UNK        -0.1801 
     42 N          29.0183  -50.1710  -55.6539 N.am      6 UNK        -0.4747 
     43 C          29.2293  -48.9966  -56.2647 C.2       6 UNK         0.5012 
     44 O          28.3434  -48.3676  -56.8474 O.2       6 UNK        -0.5003 
     45 CA         30.6434  -48.3932  -56.1605 C.3       5 UNK         0.0782 
     46 C46        30.9939  -47.5687  -57.4267 C.3       11 UNK        -0.0868 
     47 S47        32.6083  -46.7262  -57.3366 S.3       11 UNK        -0.2515 
     48 C48        32.1029  -44.9834  -57.5086 C.3       11 UNK         0.0199 
     49 N          30.6985  -47.6142  -54.9196 N.am      5 UNK        -0.4607 
     50 C          30.8724  -48.1645  -53.7133 C.2       4 UNK         0.5031 
     51 O          31.1747  -49.3483  -53.5458 O.2       4 UNK        -0.5119 
     52 CA         30.6142  -47.2736  -52.4946 C.3       4 UNK         0.0263 
     53 CB         29.1112  -47.2519  -52.1578 C.3       4 UNK        -0.1967 
     54 N          31.3737  -47.8201  -51.3771 N.am      4 UNK        -0.4237 
     55 C          31.6795  -47.2067  -50.2295 C.2       3 UNK         0.4908 
     56 O          31.2625  -46.0920  -49.9158 O.2       3 UNK        -0.5102 
     57 CA         32.6632  -47.9340  -49.2919 C.3       3 UNK         0.0241 
     58 CB         31.9626  -49.0103  -48.4385 C.3       3 UNK        -0.1971 
     59 N          33.8368  -48.4444  -50.0172 N.am      3 UNK        -0.4139 
     60 C          33.9146  -49.4694  -50.8786 C.2       2 UNK         0.5016 
     61 O          33.0302  -50.3124  -51.0293 O.2       2 UNK        -0.5319 
     62 CA         35.1229  -49.4439  -51.8347 C.3       2 UNK         0.0286 
     63 CB         35.2892  -50.7608  -52.6150 C.3       2 UNK        -0.1963 
     64 N          34.9640  -48.3418  -52.7925 N.am      2 UNK        -0.4790 
     65 C          35.1609  -47.0463  -52.5039 C.2       1 UNK         0.5024 
     66 O          35.6333  -46.6723  -51.4276 O.2       1 UNK        -0.4888 
     67 H67        37.1102  -46.1811  -57.3724 H         1 UNK         0.0892 
     68 H68        37.1944  -47.8689  -56.8605 H         1 UNK         0.0892 
     69 H69        35.6445  -47.1610  -57.3143 H         1 UNK         0.0892 
     70 H70        34.3810  -46.5971  -55.5723 H         1 UNK         0.3107 
     71 H71        33.6375  -46.0751  -53.6028 H         1 UNK         0.0773 
     72 H72        35.1721  -43.9407  -54.1143 H         1 UNK         0.0680 
     73 H73        36.1074  -44.4966  -52.7755 H         1 UNK         0.0680 
     74 H74        33.7496  -42.0272  -53.7187 H         1 UNK         0.0650 
     75 H75        32.4929  -41.9034  -52.5184 H         1 UNK         0.0650 
     76 H76        33.5186  -43.6787  -55.6107 H         1 UNK         0.1397 
     77 H77        29.5488  -45.0195  -56.5023 H         1 UNK         0.1363 
     78 H78        30.3682  -43.1011  -52.7582 H         1 UNK         0.1355 
     79 H79        27.8850  -45.0756  -54.7266 H         1 UNK         0.0707 
     80 H80        28.3116  -44.5424  -53.1236 H         1 UNK         0.0707 
     81 H81        28.0133  -43.0658  -56.7063 H         1 UNK         0.1034 
     82 H82        27.2280  -41.5437  -56.4224 H         1 UNK         0.1034 
     83 H83        25.0426  -42.8114  -56.0210 H         1 UNK         0.0482 
     84 H84        24.9320  -44.5227  -58.8624 H         1 UNK         0.3460 
     85 H85        24.7812  -43.1613  -59.9434 H         1 UNK         0.3460 
     86 H86        26.6625  -45.1416  -56.8544 H         1 UNK         0.2989 
     87 H87        25.5418  -47.2257  -55.4317 H         1 UNK         0.0559 
     88 H88        23.8347  -48.8218  -56.3204 H         1 UNK         0.0848 
     89 H89        23.0070  -47.4940  -57.1332 H         1 UNK         0.0848 
     90 H90        23.0896  -47.5413  -55.3779 H         1 UNK         0.0848 
     91 H91        26.6568  -47.8468  -57.2347 H         1 UNK         0.3144 
     92 H92        26.0854  -47.7158  -60.7541 H         1 UNK         0.0727 
     93 H93        28.4909  -47.0462  -60.6317 H         1 UNK         0.0790 
     94 H94        28.2758  -46.5477  -58.9548 H         1 UNK         0.0790 
     95 H95        27.4256  -45.7060  -60.2403 H         1 UNK         0.0790 
     96 H96        27.7711  -49.0109  -58.6702 H         1 UNK         0.3215 
     97 H97        26.3446  -52.1850  -59.2183 H         1 UNK         0.0863 
     98 H98        28.6304  -52.9318  -59.8491 H         1 UNK         0.0808 
     99 H99        29.0836  -51.2779  -60.2656 H         1 UNK         0.0808 
    100 H100       27.8590  -52.1224  -61.2018 H         1 UNK         0.0808 
    101 H101       28.6966  -51.2755  -57.8139 H         1 UNK         0.3118 
    102 H102       27.0867  -50.1470  -54.9082 H         1 UNK         0.0546 
    103 H103       28.5410  -52.8293  -55.1985 H         1 UNK         0.0828 
    104 H104       26.9329  -52.6151  -54.5211 H         1 UNK         0.0828 
    105 H105       28.3206  -51.9190  -53.7034 H         1 UNK         0.0828 
    106 H106       29.7898  -50.5845  -55.1458 H         1 UNK         0.3005 
    107 H107       31.3631  -49.2133  -56.1014 H         1 UNK         0.1257 
    108 H108       31.0186  -48.2252  -58.2985 H         1 UNK         0.0775 
    109 H109       30.2212  -46.8331  -57.6435 H         1 UNK         0.0775 
    110 H110       32.9624  -44.4040  -57.8495 H         1 UNK         0.0840 
    111 H111       31.3473  -44.8801  -58.2890 H         1 UNK         0.0840 
    112 H112       30.4699  -46.6331  -54.9964 H         1 UNK         0.2987 
    113 H113       30.9689  -46.2637  -52.7103 H         1 UNK         0.0785 
    114 H114       28.8912  -46.5383  -51.3638 H         1 UNK         0.0798 
    115 H115       28.7609  -48.2325  -51.8330 H         1 UNK         0.0798 
    116 H116       28.5135  -46.9693  -53.0246 H         1 UNK         0.0798 
    117 H117       31.7498  -48.7511  -51.5476 H         1 UNK         0.3079 
    118 H118       33.0545  -47.1818  -48.6048 H         1 UNK         0.0794 
    119 H119       31.2024  -48.5586  -47.8001 H         1 UNK         0.0786 
    120 H120       32.6705  -49.5235  -47.7877 H         1 UNK         0.0786 
    121 H121       31.4607  -49.7613  -49.0488 H         1 UNK         0.0786 
    122 H122       34.6058  -47.7825  -50.0681 H         1 UNK         0.3032 
    123 H123       36.0252  -49.2866  -51.2388 H         1 UNK         0.1094 
    124 H124       34.4272  -50.9685  -53.2507 H         1 UNK         0.0794 
    125 H125       36.1754  -50.7360  -53.2494 H         1 UNK         0.0794 
    126 H126       35.4024  -51.6050  -51.9334 H         1 UNK         0.0794 
    127 H127       34.5692  -48.5816  -53.6906 H         1 UNK         0.3016 
@<TRIPOS>BOND
     1    1    2 1    
     2    1   67 1    
     3    1   68 1    
     4    1   69 1    
     5    2    3 2    
     6    2    4 am   BACKBONE|DICT|INTERRES
     7    4    5 1    
     8    4   70 1    
     9    5    6 1    
    10    5   65 1    
    11    5   71 1    
    12    6    7 1    
    13    6   72 1    
    14    6   73 1    
    15    7    8 1    
    16    8    9 1    
    17    8   74 1    
    18    8   75 1    
    19    9   10 ar   
    20    9   14 ar   
    21   10   11 ar   
    22   10   76 1    
    23   11   12 ar   
    24   11   48 1    
    25   12   13 ar   
    26   12   77 1    
    27   13   14 ar   
    28   13   15 1    
    29   14   78 1    
    30   15   16 1    
    31   15   79 1    
    32   15   80 1    
    33   16   17 1    
    34   17   18 1    
    35   17   81 1    
    36   17   82 1    
    37   18   19 1    
    38   18   22 1    
    39   18   83 1    
    40   19   20 am   BACKBONE|DICT|INTERRES
    41   19   21 2    
    42   20   84 1    
    43   20   85 1    
    44   22   23 am   BACKBONE|DICT|INTERRES
    45   22   86 1    
    46   23   24 2    
    47   23   25 1    
    48   25   26 1    
    49   25   27 1    
    50   25   87 1    
    51   26   88 1    
    52   26   89 1    
    53   26   90 1    
    54   27   28 am   BACKBONE|DICT|INTERRES
    55   27   91 1    
    56   28   29 2    
    57   28   30 1    
    58   30   31 1    
    59   30   32 1    
    60   30   92 1    
    61   31   93 1    
    62   31   94 1    
    63   31   95 1    
    64   32   33 am   BACKBONE|DICT|INTERRES
    65   32   96 1    
    66   33   34 2    
    67   33   35 1    
    68   35   36 1    
    69   35   37 1    
    70   35   97 1    
    71   36   98 1    
    72   36   99 1    
    73   36  100 1    
    74   37   38 am   BACKBONE|DICT|INTERRES
    75   37  101 1    
    76   38   39 2    
    77   38   40 1    
    78   40   41 1    
    79   40   42 1    
    80   40  102 1    
    81   41  103 1    
    82   41  104 1    
    83   41  105 1    
    84   42   43 am   BACKBONE|DICT|INTERRES
    85   42  106 1    
    86   43   44 2    
    87   43   45 1    
    88   45   46 1    
    89   45   49 1    
    90   45  107 1    
    91   46   47 1    
    92   46  108 1    
    93   46  109 1    
    94   47   48 1    
    95   48  110 1    
    96   48  111 1    
    97   49   50 am   BACKBONE|DICT|INTERRES
    98   49  112 1    
    99   50   51 2    
   100   50   52 1    
   101   52   53 1    
   102   52   54 1    
   103   52  113 1    
   104   53  114 1    
   105   53  115 1    
   106   53  116 1    
   107   54   55 am   BACKBONE|DICT|INTERRES
   108   54  117 1    
   109   55   56 2    
   110   55   57 1    
   111   57   58 1    
   112   57   59 1    
   113   57  118 1    
   114   58  119 1    
   115   58  120 1    
   116   58  121 1    
   117   59   60 am   BACKBONE|DICT|INTERRES
   118   59  122 1    
   119   60   61 2    
   120   60   62 1    
   121   62   63 1    
   122   62   64 1    
   123   62  123 1    
   124   63  124 1    
   125   63  125 1    
   126   63  126 1    
   127   64   65 am   BACKBONE|DICT|INTERRES
   128   64  127 1    
   129   65   66 2    
@<TRIPOS>SUBSTRUCTURE
     1 UNK         1 GROUP             0       ****    0 ROOT    
