@<TRIPOS>MOLECULE
3R134
127   129    1
SMALL
USER_CHARGES


@<TRIPOS>ATOM
      1 CA         33.4136  -46.3508  -51.0359 C.3       0 UNK        -0.1968 
      2 C          34.5923  -45.9551  -51.9145 C.2       0 UNK         0.4852 
      3 O          35.4105  -45.1307  -51.5050 O.2       0 UNK        -0.5359 
      4 N          34.6823  -46.5448  -53.1113 N.am      1 UNK        -0.4300 
      5 CA         35.7304  -46.3122  -54.1131 C.3       1 UNK         0.0863 
      6 C6         35.1871  -45.6503  -55.4144 C.3       11 UNK        -0.0953 
      7 S7         34.1035  -44.2105  -55.1293 S.3       11 UNK        -0.2369 
      8 C8         32.4970  -45.0300  -55.3687 C.3       11 UNK         0.0226 
      9 C9         31.3414  -44.2130  -54.8209 C.ar      11 UNK        -0.0699 
     10 C10        31.1373  -44.1351  -53.4417 C.ar      11 UNK        -0.0804 
     11 C11        30.0203  -43.4733  -52.9241 C.ar      11 UNK        -0.0871 
     12 C12        29.1114  -42.8717  -53.8002 C.ar      11 UNK        -0.1008 
     13 C13        29.3145  -42.9325  -55.1823 C.ar      11 UNK        -0.0735 
     14 C14        30.4371  -43.5941  -55.6870 C.ar      11 UNK        -0.0945 
     15 C15        28.3022  -42.3209  -56.1354 C.3       11 UNK         0.0169 
     16 S16        27.0125  -43.5332  -56.5417 S.3       11 UNK        -0.2669 
     17 C17        26.0479  -42.6097  -57.7827 C.3       11 UNK        -0.0850 
     18 CA         25.0260  -43.5199  -58.5289 C.3       10 UNK         0.0855 
     19 C          24.0625  -42.7401  -59.4783 C.2       10 UNK         0.5543 
     20 N          23.6373  -41.5374  -59.1127 N.am      10 UNK        -0.7343 
     21 O          23.6451  -43.2337  -60.5250 O.2       10 UNK        -0.5027 
     22 N          25.6659  -44.6829  -59.1697 N.am      10 UNK        -0.4495 
     23 C          26.5168  -44.6617  -60.2018 C.2       10 UNK         0.4903 
     24 O          26.9322  -43.6321  -60.7375 O.2       10 UNK        -0.4860 
     25 CA         26.9990  -46.0372  -60.7006 C.3       9 UNK         0.0227 
     26 CB         27.6391  -45.9636  -62.0999 C.3       9 UNK        -0.1964 
     27 N          27.9562  -46.6418  -59.7719 N.am      9 UNK        -0.4231 
     28 C          27.6459  -47.2309  -58.6097 C.2       9 UNK         0.5014 
     29 O          26.4938  -47.3284  -58.1770 O.2       9 UNK        -0.5270 
     30 CA         28.8379  -47.7737  -57.7981 C.3       8 UNK         0.0284 
     31 CB         29.4887  -46.6480  -56.9798 C.3       8 UNK        -0.1977 
     32 N          28.4671  -48.8532  -56.8840 N.am      8 UNK        -0.4342 
     33 C          27.9855  -50.0524  -57.2363 C.2       8 UNK         0.5039 
     34 O          27.8594  -50.4301  -58.4025 O.2       8 UNK        -0.5547 
     35 CA         27.5861  -50.9985  -56.0925 C.3       7 UNK         0.0281 
     36 CB         28.7745  -51.8875  -55.6871 C.3       7 UNK        -0.1963 
     37 N          27.1044  -50.2623  -54.9201 N.am      7 UNK        -0.4444 
     38 C          25.8315  -49.8859  -54.7308 C.2       7 UNK         0.5104 
     39 O          24.9151  -50.1660  -55.5041 O.2       7 UNK        -0.5100 
     40 CA         25.5074  -49.0853  -53.4541 C.3       6 UNK         0.0396 
     41 CB         24.9143  -50.0134  -52.3817 C.3       6 UNK        -0.1801 
     42 N          26.6676  -48.3900  -52.8914 N.am      6 UNK        -0.4747 
     43 C          27.1726  -47.2388  -53.3610 C.2       6 UNK         0.5012 
     44 O          26.6724  -46.6037  -54.2871 O.2       6 UNK        -0.5003 
     45 CA         28.4714  -46.7284  -52.6974 C.3       5 UNK         0.0782 
     46 C46        28.1329  -45.7318  -51.5584 C.3       11 UNK        -0.0868 
     47 S47        29.6143  -45.0944  -50.7002 S.3       11 UNK        -0.2515 
     48 C48        29.7872  -43.4287  -51.4204 C.3       11 UNK         0.0199 
     49 N          29.3446  -47.8191  -52.2356 N.am      5 UNK        -0.4607 
     50 C          29.8638  -48.7762  -53.0135 C.2       4 UNK         0.5031 
     51 O          29.6245  -48.8809  -54.2176 O.2       4 UNK        -0.5119 
     52 CA         30.7100  -49.8441  -52.3023 C.3       4 UNK         0.0263 
     53 CB         29.7930  -50.9110  -51.6804 C.3       4 UNK        -0.1967 
     54 N          31.6581  -50.5058  -53.2017 N.am      4 UNK        -0.4237 
     55 C          32.7163  -49.9095  -53.7621 C.2       3 UNK         0.4908 
     56 O          33.0128  -48.7238  -53.5882 O.2       3 UNK        -0.5102 
     57 CA         33.5906  -50.7805  -54.6800 C.3       3 UNK         0.0241 
     58 CB         33.1711  -50.5921  -56.1468 C.3       3 UNK        -0.1971 
     59 N          34.9950  -50.4020  -54.5284 N.am      3 UNK        -0.4139 
     60 C          35.7570  -50.6990  -53.4676 C.2       2 UNK         0.5016 
     61 O          35.4575  -51.5473  -52.6264 O.2       2 UNK        -0.5319 
     62 CA         37.0278  -49.8507  -53.2640 C.3       2 UNK         0.0286 
     63 CB         38.1724  -50.2811  -54.2037 C.3       2 UNK        -0.1963 
     64 N          36.7393  -48.4067  -53.3292 N.am      2 UNK        -0.4790 
     65 C          36.3932  -47.6745  -54.4006 C.2       1 UNK         0.5024 
     66 O          36.4729  -48.0935  -55.5569 O.2       1 UNK        -0.4888 
     67 H67        32.6512  -46.8902  -51.5981 H         1 UNK         0.0892 
     68 H68        33.7506  -46.9875  -50.2187 H         1 UNK         0.0892 
     69 H69        32.9471  -45.4639  -50.6075 H         1 UNK         0.0892 
     70 H70        34.0129  -47.2784  -53.3519 H         1 UNK         0.3107 
     71 H71        36.5080  -45.6644  -53.7040 H         1 UNK         0.0773 
     72 H72        36.0220  -45.3221  -56.0358 H         1 UNK         0.0680 
     73 H73        34.6357  -46.3721  -56.0207 H         1 UNK         0.0680 
     74 H74        32.4992  -46.0009  -54.8703 H         1 UNK         0.0650 
     75 H75        32.3587  -45.2336  -56.4317 H         1 UNK         0.0650 
     76 H76        31.8341  -44.6168  -52.7709 H         1 UNK         0.1397 
     77 H77        28.2352  -42.3708  -53.4114 H         1 UNK         0.1363 
     78 H78        30.5849  -43.6575  -56.7562 H         1 UNK         0.1355 
     79 H79        27.8460  -41.4359  -55.6891 H         1 UNK         0.0707 
     80 H80        28.7979  -41.9912  -57.0500 H         1 UNK         0.0707 
     81 H81        25.5421  -41.8002  -57.2554 H         1 UNK         0.1034 
     82 H82        26.7278  -42.1366  -58.4932 H         1 UNK         0.1034 
     83 H83        24.3674  -43.9512  -57.7742 H         1 UNK         0.0482 
     84 H84        23.9267  -41.1164  -58.2446 H         1 UNK         0.3460 
     85 H85        22.9987  -41.0439  -59.7170 H         1 UNK         0.3460 
     86 H86        25.4559  -45.5861  -58.7599 H         1 UNK         0.2989 
     87 H87        26.1242  -46.6870  -60.7743 H         1 UNK         0.0559 
     88 H88        26.9485  -45.5237  -62.8207 H         1 UNK         0.0848 
     89 H89        27.9012  -46.9551  -62.4697 H         1 UNK         0.0848 
     90 H90        28.5437  -45.3540  -62.1028 H         1 UNK         0.0848 
     91 H91        28.9303  -46.5696  -60.0287 H         1 UNK         0.3144 
     92 H92        29.5769  -48.1750  -58.4946 H         1 UNK         0.0727 
     93 H93        28.7845  -46.2087  -56.2711 H         1 UNK         0.0790 
     94 H94        29.8409  -45.8454  -57.6281 H         1 UNK         0.0790 
     95 H95        30.3474  -47.0110  -56.4143 H         1 UNK         0.0790 
     96 H96        28.6084  -48.6728  -55.8957 H         1 UNK         0.3215 
     97 H97        26.7904  -51.6494  -56.4618 H         1 UNK         0.0863 
     98 H98        28.4988  -52.5816  -54.8931 H         1 UNK         0.0808 
     99 H99        29.6241  -51.2990  -55.3406 H         1 UNK         0.0808 
    100 H100       29.1181  -52.4836  -56.5335 H         1 UNK         0.0808 
    101 H101       27.8108  -49.9288  -54.2769 H         1 UNK         0.3118 
    102 H102       24.7495  -48.3434  -53.7152 H         1 UNK         0.0546 
    103 H103       25.6247  -50.7808  -52.0715 H         1 UNK         0.0828 
    104 H104       24.0266  -50.5251  -52.7566 H         1 UNK         0.0828 
    105 H105       24.6126  -49.4551  -51.4954 H         1 UNK         0.0828 
    106 H106       27.1344  -48.8343  -52.1139 H         1 UNK         0.3005 
    107 H107       29.0203  -46.1882  -53.4724 H         1 UNK         0.1257 
    108 H108       27.5009  -46.2112  -50.8082 H         1 UNK         0.0775 
    109 H109       27.5537  -44.8910  -51.9458 H         1 UNK         0.0775 
    110 H110       28.9008  -42.8407  -51.1769 H         1 UNK         0.0840 
    111 H111       30.6298  -42.9242  -50.9456 H         1 UNK         0.0840 
    112 H112       29.5805  -47.7997  -51.2538 H         1 UNK         0.2987 
    113 H113       31.2816  -49.3598  -51.5075 H         1 UNK         0.0785 
    114 H114       29.0971  -50.4679  -50.9668 H         1 UNK         0.0798 
    115 H115       30.3692  -51.6613  -51.1385 H         1 UNK         0.0798 
    116 H116       29.2001  -51.4268  -52.4371 H         1 UNK         0.0798 
    117 H117       31.4718  -51.4733  -53.4202 H         1 UNK         0.3079 
    118 H118       33.4744  -51.8314  -54.4066 H         1 UNK         0.0794 
    119 H119       32.1286  -50.8774  -56.2958 H         1 UNK         0.0786 
    120 H120       33.7748  -51.2073  -56.8143 H         1 UNK         0.0786 
    121 H121       33.2720  -49.5531  -56.4646 H         1 UNK         0.0786 
    122 H122       35.3329  -49.6631  -55.1363 H         1 UNK         0.3032 
    123 H123       37.3650  -50.0366  -52.2425 H         1 UNK         0.1094 
    124 H124       39.0603  -49.6670  -54.0539 H         1 UNK         0.0794 
    125 H125       38.4579  -51.3159  -54.0105 H         1 UNK         0.0794 
    126 H126       37.8947  -50.2197  -55.2559 H         1 UNK         0.0794 
    127 H127       36.6074  -47.9666  -52.4281 H         1 UNK         0.3016 
@<TRIPOS>BOND
     1    1    2 1    
     2    1   67 1    
     3    1   68 1    
     4    1   69 1    
     5    2    3 2    
     6    2    4 am   BACKBONE|DICT|INTERRES
     7    4    5 1    
     8    4   70 1    
     9    5    6 1    
    10    5   65 1    
    11    5   71 1    
    12    6    7 1    
    13    6   72 1    
    14    6   73 1    
    15    7    8 1    
    16    8    9 1    
    17    8   74 1    
    18    8   75 1    
    19    9   10 ar   
    20    9   14 ar   
    21   10   11 ar   
    22   10   76 1    
    23   11   12 ar   
    24   11   48 1    
    25   12   13 ar   
    26   12   77 1    
    27   13   14 ar   
    28   13   15 1    
    29   14   78 1    
    30   15   16 1    
    31   15   79 1    
    32   15   80 1    
    33   16   17 1    
    34   17   18 1    
    35   17   81 1    
    36   17   82 1    
    37   18   19 1    
    38   18   22 1    
    39   18   83 1    
    40   19   20 am   BACKBONE|DICT|INTERRES
    41   19   21 2    
    42   20   84 1    
    43   20   85 1    
    44   22   23 am   BACKBONE|DICT|INTERRES
    45   22   86 1    
    46   23   24 2    
    47   23   25 1    
    48   25   26 1    
    49   25   27 1    
    50   25   87 1    
    51   26   88 1    
    52   26   89 1    
    53   26   90 1    
    54   27   28 am   BACKBONE|DICT|INTERRES
    55   27   91 1    
    56   28   29 2    
    57   28   30 1    
    58   30   31 1    
    59   30   32 1    
    60   30   92 1    
    61   31   93 1    
    62   31   94 1    
    63   31   95 1    
    64   32   33 am   BACKBONE|DICT|INTERRES
    65   32   96 1    
    66   33   34 2    
    67   33   35 1    
    68   35   36 1    
    69   35   37 1    
    70   35   97 1    
    71   36   98 1    
    72   36   99 1    
    73   36  100 1    
    74   37   38 am   BACKBONE|DICT|INTERRES
    75   37  101 1    
    76   38   39 2    
    77   38   40 1    
    78   40   41 1    
    79   40   42 1    
    80   40  102 1    
    81   41  103 1    
    82   41  104 1    
    83   41  105 1    
    84   42   43 am   BACKBONE|DICT|INTERRES
    85   42  106 1    
    86   43   44 2    
    87   43   45 1    
    88   45   46 1    
    89   45   49 1    
    90   45  107 1    
    91   46   47 1    
    92   46  108 1    
    93   46  109 1    
    94   47   48 1    
    95   48  110 1    
    96   48  111 1    
    97   49   50 am   BACKBONE|DICT|INTERRES
    98   49  112 1    
    99   50   51 2    
   100   50   52 1    
   101   52   53 1    
   102   52   54 1    
   103   52  113 1    
   104   53  114 1    
   105   53  115 1    
   106   53  116 1    
   107   54   55 am   BACKBONE|DICT|INTERRES
   108   54  117 1    
   109   55   56 2    
   110   55   57 1    
   111   57   58 1    
   112   57   59 1    
   113   57  118 1    
   114   58  119 1    
   115   58  120 1    
   116   58  121 1    
   117   59   60 am   BACKBONE|DICT|INTERRES
   118   59  122 1    
   119   60   61 2    
   120   60   62 1    
   121   62   63 1    
   122   62   64 1    
   123   62  123 1    
   124   63  124 1    
   125   63  125 1    
   126   63  126 1    
   127   64   65 am   BACKBONE|DICT|INTERRES
   128   64  127 1    
   129   65   66 2    
@<TRIPOS>SUBSTRUCTURE
     1 UNK         1 GROUP             0       ****    0 ROOT    
