@<TRIPOS>MOLECULE
3R134
127   129    1
SMALL
USER_CHARGES


@<TRIPOS>ATOM
      1 CA         33.6143  -44.6060  -49.3295 C.3       0 UNK        -0.1968 
      2 C          33.5695  -45.1621  -50.7447 C.2       0 UNK         0.4852 
      3 O          32.4827  -45.3619  -51.2819 O.2       0 UNK        -0.5359 
      4 N          34.7428  -45.4227  -51.3396 N.am      1 UNK        -0.4300 
      5 CA         34.9605  -45.9048  -52.7168 C.3       1 UNK         0.0863 
      6 C6         34.3818  -44.9732  -53.8181 C.3       11 UNK        -0.0953 
      7 S7         34.8958  -43.2332  -53.6265 S.3       11 UNK        -0.2369 
      8 C8         34.0095  -42.4496  -55.0174 C.3       11 UNK         0.0226 
      9 C9         32.4840  -42.3686  -54.9000 C.ar      11 UNK        -0.0699 
     10 C10        31.7810  -42.6889  -53.7299 C.ar      11 UNK        -0.0804 
     11 C11        30.3862  -42.5973  -53.6834 C.ar      11 UNK        -0.0871 
     12 C12        29.6874  -42.1703  -54.8160 C.ar      11 UNK        -0.1008 
     13 C13        30.3710  -41.8380  -55.9890 C.ar      11 UNK        -0.0735 
     14 C14        31.7660  -41.9339  -56.0179 C.ar      11 UNK        -0.0945 
     15 C15        29.5982  -41.3487  -57.2097 C.3       11 UNK         0.0169 
     16 S16        30.0673  -42.1945  -58.7571 S.3       11 UNK        -0.2669 
     17 C17        29.5257  -43.9058  -58.4265 C.3       11 UNK        -0.0850 
     18 CA         28.0528  -44.1768  -58.8388 C.3       10 UNK         0.0855 
     19 C          27.8909  -44.4490  -60.3676 C.2       10 UNK         0.5543 
     20 N          27.3206  -45.5680  -60.7993 N.am      10 UNK        -0.7343 
     21 O          28.2747  -43.6201  -61.1884 O.2       10 UNK        -0.5027 
     22 N          27.4670  -45.2090  -57.9724 N.am      10 UNK        -0.4495 
     23 C          26.1621  -45.3461  -57.7108 C.2       10 UNK         0.4903 
     24 O          25.3002  -44.5578  -58.1035 O.2       10 UNK        -0.4860 
     25 CA         25.7599  -46.5828  -56.8804 C.3       9 UNK         0.0227 
     26 CB         24.2391  -46.8438  -56.8949 C.3       9 UNK        -0.1964 
     27 N          26.4875  -47.8061  -57.2521 N.am      9 UNK        -0.4231 
     28 C          26.5649  -48.3609  -58.4727 C.2       9 UNK         0.5014 
     29 O          26.0460  -47.8772  -59.4795 O.2       9 UNK        -0.5270 
     30 CA         27.3675  -49.6655  -58.6180 C.3       8 UNK         0.0284 
     31 CB         28.7214  -49.3950  -59.2912 C.3       8 UNK        -0.1977 
     32 N          27.5822  -50.3782  -57.3546 N.am      8 UNK        -0.4342 
     33 C          26.6473  -51.1283  -56.7551 C.2       8 UNK         0.5039 
     34 O          25.4928  -51.2409  -57.1690 O.2       8 UNK        -0.5547 
     35 CA         27.0624  -51.8840  -55.4882 C.3       7 UNK         0.0281 
     36 CB         28.0141  -53.0472  -55.8211 C.3       7 UNK        -0.1963 
     37 N          27.6923  -50.9879  -54.5155 N.am      7 UNK        -0.4444 
     38 C          27.2038  -50.7494  -53.2909 C.2       7 UNK         0.5104 
     39 O          26.1563  -51.2360  -52.8627 O.2       7 UNK        -0.5100 
     40 CA         28.0183  -49.8349  -52.3611 C.3       6 UNK         0.0396 
     41 CB         28.9682  -50.6694  -51.4873 C.3       6 UNK        -0.1801 
     42 N          28.7797  -48.7852  -53.0420 N.am      6 UNK        -0.4747 
     43 C          28.2290  -47.7081  -53.6221 C.2       6 UNK         0.5012 
     44 O          27.0169  -47.5690  -53.7810 O.2       6 UNK        -0.5003 
     45 CA         29.1884  -46.6044  -54.1024 C.3       5 UNK         0.0782 
     46 C46        29.6733  -45.7201  -52.9279 C.3       11 UNK        -0.0868 
     47 S47        28.5132  -44.3567  -52.5791 S.3       11 UNK        -0.2515 
     48 C48        29.6408  -42.9353  -52.3972 C.3       11 UNK         0.0199 
     49 N          30.3128  -47.1960  -54.8219 N.am      5 UNK        -0.4607 
     50 C          30.4021  -47.2605  -56.1549 C.2       4 UNK         0.5031 
     51 O          29.5620  -46.7936  -56.9226 O.2       4 UNK        -0.5119 
     52 CA         31.6152  -48.0092  -56.7327 C.3       4 UNK         0.0263 
     53 CB         32.7984  -47.0460  -56.9053 C.3       4 UNK        -0.1967 
     54 N          32.0196  -49.1597  -55.9185 N.am      4 UNK        -0.4237 
     55 C          31.2227  -50.2034  -55.6410 C.2       3 UNK         0.4908 
     56 O          30.0803  -50.3264  -56.0855 O.2       3 UNK        -0.5102 
     57 CA         31.7470  -51.2705  -54.6660 C.3       3 UNK         0.0241 
     58 CB         32.3328  -52.4582  -55.4447 C.3       3 UNK        -0.1971 
     59 N          32.7332  -50.7945  -53.6895 N.am      3 UNK        -0.4139 
     60 C          32.5753  -49.7784  -52.8282 C.2       2 UNK         0.5016 
     61 O          31.5712  -49.0627  -52.7920 O.2       2 UNK        -0.5319 
     62 CA         33.7322  -49.4952  -51.8484 C.3       2 UNK         0.0286 
     63 CB         34.9623  -50.4154  -52.0276 C.3       2 UNK        -0.1963 
     64 N          34.1460  -48.0880  -51.8787 N.am      2 UNK        -0.4790 
     65 C          34.5475  -47.3794  -52.9461 C.2       1 UNK         0.5024 
     66 O          34.6331  -47.8573  -54.0795 O.2       1 UNK        -0.4888 
     67 H67        34.6355  -44.4882  -48.9677 H         1 UNK         0.0892 
     68 H68        33.1287  -43.6310  -49.2970 H         1 UNK         0.0892 
     69 H69        33.0865  -45.2722  -48.6477 H         1 UNK         0.0892 
     70 H70        35.5930  -45.2439  -50.8230 H         1 UNK         0.3107 
     71 H71        36.0442  -45.9023  -52.8431 H         1 UNK         0.0773 
     72 H72        33.2927  -45.0307  -53.8336 H         1 UNK         0.0680 
     73 H73        34.7186  -45.3000  -54.8032 H         1 UNK         0.0680 
     74 H74        34.2717  -42.9818  -55.9332 H         1 UNK         0.0650 
     75 H75        34.3957  -41.4358  -55.1299 H         1 UNK         0.0650 
     76 H76        32.3096  -43.0139  -52.8454 H         1 UNK         0.1397 
     77 H77        28.6091  -42.0940  -54.7780 H         1 UNK         0.1363 
     78 H78        32.2972  -41.6693  -56.9222 H         1 UNK         0.1355 
     79 H79        28.5235  -41.4652  -57.0612 H         1 UNK         0.0707 
     80 H80        29.7782  -40.2795  -57.3282 H         1 UNK         0.0707 
     81 H81        30.2036  -44.5993  -58.9277 H         1 UNK         0.1034 
     82 H82        29.6643  -44.0971  -57.3613 H         1 UNK         0.1034 
     83 H83        27.4886  -43.2622  -58.6469 H         1 UNK         0.0482 
     84 H84        27.2227  -45.7127  -61.7912 H         1 UNK         0.3460 
     85 H85        26.9468  -46.2570  -60.1553 H         1 UNK         0.3460 
     86 H86        28.1205  -45.9047  -57.6165 H         1 UNK         0.2989 
     87 H87        26.0424  -46.3518  -55.8540 H         1 UNK         0.0559 
     88 H88        23.8735  -47.0413  -57.9032 H         1 UNK         0.0848 
     89 H89        23.6890  -45.9840  -56.5108 H         1 UNK         0.0848 
     90 H90        23.9784  -47.6982  -56.2703 H         1 UNK         0.0848 
     91 H91        26.9748  -48.2713  -56.4998 H         1 UNK         0.3144 
     92 H92        26.7964  -50.3185  -59.2818 H         1 UNK         0.0727 
     93 H93        29.3224  -48.6978  -58.7126 H         1 UNK         0.0790 
     94 H94        28.5835  -48.9569  -60.2808 H         1 UNK         0.0790 
     95 H95        29.2961  -50.3125  -59.4187 H         1 UNK         0.0790 
     96 H96        28.5226  -50.3500  -56.9602 H         1 UNK         0.3215 
     97 H97        26.1523  -52.3217  -55.0721 H         1 UNK         0.0863 
     98 H98        28.2609  -53.6216  -54.9281 H         1 UNK         0.0808 
     99 H99        28.9487  -52.7043  -56.2644 H         1 UNK         0.0808 
    100 H100       27.5524  -53.7352  -56.5305 H         1 UNK         0.0808 
    101 H101       28.5535  -50.5361  -54.8029 H         1 UNK         0.3118 
    102 H102       27.3080  -49.3410  -51.6944 H         1 UNK         0.0546 
    103 H103       28.4177  -51.4209  -50.9197 H         1 UNK         0.0828 
    104 H104       29.4975  -50.0446  -50.7676 H         1 UNK         0.0828 
    105 H105       29.7128  -51.1947  -52.0845 H         1 UNK         0.0828 
    106 H106       29.7943  -48.8339  -52.9520 H         1 UNK         0.3005 
    107 H107       28.6259  -45.9693  -54.7913 H         1 UNK         0.1257 
    108 H108       30.6409  -45.2856  -53.1798 H         1 UNK         0.0775 
    109 H109       29.8479  -46.2962  -52.0167 H         1 UNK         0.0775 
    110 H110       29.0621  -42.0650  -52.0848 H         1 UNK         0.0840 
    111 H111       30.3392  -43.1449  -51.5848 H         1 UNK         0.0840 
    112 H112       31.0149  -47.6599  -54.2564 H         1 UNK         0.2987 
    113 H113       31.3421  -48.3867  -57.7186 H         1 UNK         0.0785 
    114 H114       32.5326  -46.2165  -57.5622 H         1 UNK         0.0798 
    115 H115       33.6614  -47.5461  -57.3450 H         1 UNK         0.0798 
    116 H116       33.1061  -46.6181  -55.9522 H         1 UNK         0.0798 
    117 H117       32.9322  -49.1153  -55.4842 H         1 UNK         0.3079 
    118 H118       30.8857  -51.6321  -54.1023 H         1 UNK         0.0794 
    119 H119       33.2271  -52.1747  -56.0011 H         1 UNK         0.0786 
    120 H120       31.6116  -52.8490  -56.1643 H         1 UNK         0.0786 
    121 H121       32.5968  -53.2797  -54.7782 H         1 UNK         0.0786 
    122 H122       33.6047  -51.3033  -53.6536 H         1 UNK         0.3032 
    123 H123       33.3243  -49.6772  -50.8528 H         1 UNK         0.1094 
    124 H124       35.7275  -50.1884  -51.2850 H         1 UNK         0.0794 
    125 H125       34.6991  -51.4655  -51.8931 H         1 UNK         0.0794 
    126 H126       35.4213  -50.3053  -53.0110 H         1 UNK         0.0794 
    127 H127       34.0576  -47.5864  -51.0065 H         1 UNK         0.3016 
@<TRIPOS>BOND
     1    1    2 1    
     2    1   67 1    
     3    1   68 1    
     4    1   69 1    
     5    2    3 2    
     6    2    4 am   BACKBONE|DICT|INTERRES
     7    4    5 1    
     8    4   70 1    
     9    5    6 1    
    10    5   65 1    
    11    5   71 1    
    12    6    7 1    
    13    6   72 1    
    14    6   73 1    
    15    7    8 1    
    16    8    9 1    
    17    8   74 1    
    18    8   75 1    
    19    9   10 ar   
    20    9   14 ar   
    21   10   11 ar   
    22   10   76 1    
    23   11   12 ar   
    24   11   48 1    
    25   12   13 ar   
    26   12   77 1    
    27   13   14 ar   
    28   13   15 1    
    29   14   78 1    
    30   15   16 1    
    31   15   79 1    
    32   15   80 1    
    33   16   17 1    
    34   17   18 1    
    35   17   81 1    
    36   17   82 1    
    37   18   19 1    
    38   18   22 1    
    39   18   83 1    
    40   19   20 am   BACKBONE|DICT|INTERRES
    41   19   21 2    
    42   20   84 1    
    43   20   85 1    
    44   22   23 am   BACKBONE|DICT|INTERRES
    45   22   86 1    
    46   23   24 2    
    47   23   25 1    
    48   25   26 1    
    49   25   27 1    
    50   25   87 1    
    51   26   88 1    
    52   26   89 1    
    53   26   90 1    
    54   27   28 am   BACKBONE|DICT|INTERRES
    55   27   91 1    
    56   28   29 2    
    57   28   30 1    
    58   30   31 1    
    59   30   32 1    
    60   30   92 1    
    61   31   93 1    
    62   31   94 1    
    63   31   95 1    
    64   32   33 am   BACKBONE|DICT|INTERRES
    65   32   96 1    
    66   33   34 2    
    67   33   35 1    
    68   35   36 1    
    69   35   37 1    
    70   35   97 1    
    71   36   98 1    
    72   36   99 1    
    73   36  100 1    
    74   37   38 am   BACKBONE|DICT|INTERRES
    75   37  101 1    
    76   38   39 2    
    77   38   40 1    
    78   40   41 1    
    79   40   42 1    
    80   40  102 1    
    81   41  103 1    
    82   41  104 1    
    83   41  105 1    
    84   42   43 am   BACKBONE|DICT|INTERRES
    85   42  106 1    
    86   43   44 2    
    87   43   45 1    
    88   45   46 1    
    89   45   49 1    
    90   45  107 1    
    91   46   47 1    
    92   46  108 1    
    93   46  109 1    
    94   47   48 1    
    95   48  110 1    
    96   48  111 1    
    97   49   50 am   BACKBONE|DICT|INTERRES
    98   49  112 1    
    99   50   51 2    
   100   50   52 1    
   101   52   53 1    
   102   52   54 1    
   103   52  113 1    
   104   53  114 1    
   105   53  115 1    
   106   53  116 1    
   107   54   55 am   BACKBONE|DICT|INTERRES
   108   54  117 1    
   109   55   56 2    
   110   55   57 1    
   111   57   58 1    
   112   57   59 1    
   113   57  118 1    
   114   58  119 1    
   115   58  120 1    
   116   58  121 1    
   117   59   60 am   BACKBONE|DICT|INTERRES
   118   59  122 1    
   119   60   61 2    
   120   60   62 1    
   121   62   63 1    
   122   62   64 1    
   123   62  123 1    
   124   63  124 1    
   125   63  125 1    
   126   63  126 1    
   127   64   65 am   BACKBONE|DICT|INTERRES
   128   64  127 1    
   129   65   66 2    
@<TRIPOS>SUBSTRUCTURE
     1 UNK         1 GROUP             0       ****    0 ROOT    
