@<TRIPOS>MOLECULE
3R134
127   129    1
SMALL
USER_CHARGES


@<TRIPOS>ATOM
      1 CA         35.1693  -42.6770  -48.4140 C.3       0 UNK        -0.1968 
      2 C          34.3560  -43.7494  -49.1251 C.2       0 UNK         0.4852 
      3 O          33.5966  -44.4640  -48.4686 O.2       0 UNK        -0.5359 
      4 N          34.5157  -43.8504  -50.4538 N.am      1 UNK        -0.4300 
      5 CA         33.8758  -44.8112  -51.3681 C.3       1 UNK         0.0863 
      6 C6         32.3184  -44.7690  -51.3359 C.3       11 UNK        -0.0953 
      7 S7         31.6524  -43.1161  -51.7407 S.3       11 UNK        -0.2369 
      8 C8         30.2129  -43.5276  -52.7921 C.3       11 UNK         0.0226 
      9 C9         30.5153  -43.9320  -54.2384 C.ar      11 UNK        -0.0699 
     10 C10        31.8058  -44.2352  -54.6938 C.ar      11 UNK        -0.0804 
     11 C11        32.0263  -44.6409  -56.0114 C.ar      11 UNK        -0.0871 
     12 C12        30.9499  -44.7123  -56.8961 C.ar      11 UNK        -0.1008 
     13 C13        29.6546  -44.4319  -56.4585 C.ar      11 UNK        -0.0735 
     14 C14        29.4443  -44.0369  -55.1336 C.ar      11 UNK        -0.0945 
     15 C15        28.4853  -44.6525  -57.4026 C.3       11 UNK         0.0169 
     16 S16        28.0921  -43.1838  -58.3982 S.3       11 UNK        -0.2669 
     17 C17        26.9210  -42.2939  -57.3138 C.3       11 UNK        -0.0850 
     18 CA         25.4213  -42.6029  -57.5992 C.3       10 UNK         0.0855 
     19 C          24.9431  -42.1569  -59.0074 C.2       10 UNK         0.5543 
     20 N          25.0040  -40.8652  -59.3024 N.am      10 UNK        -0.7343 
     21 O          24.5123  -42.9599  -59.8333 O.2       10 UNK        -0.5027 
     22 N          25.0690  -44.0009  -57.3198 N.am      10 UNK        -0.4495 
     23 C          24.8860  -44.5209  -56.1037 C.2       10 UNK         0.4903 
     24 O          25.0156  -43.8741  -55.0640 O.2       10 UNK        -0.4860 
     25 CA         24.5087  -46.0090  -56.0040 C.3       9 UNK         0.0227 
     26 CB         22.9905  -46.2122  -56.1762 C.3       9 UNK        -0.1964 
     27 N          25.2845  -46.9173  -56.8625 N.am      9 UNK        -0.4231 
     28 C          25.2522  -47.0585  -58.1978 C.2       9 UNK         0.5014 
     29 O          24.5769  -46.3412  -58.9365 O.2       9 UNK        -0.5270 
     30 CA         26.0994  -48.1834  -58.8342 C.3       8 UNK         0.0284 
     31 CB         27.0915  -47.6303  -59.8711 C.3       8 UNK        -0.1977 
     32 N          26.8260  -49.0042  -57.8593 N.am      8 UNK        -0.4342 
     33 C          26.2784  -50.0072  -57.1540 C.2       8 UNK         0.5039 
     34 O          25.1227  -50.3991  -57.3183 O.2       8 UNK        -0.5547 
     35 CA         27.1386  -50.6712  -56.0576 C.3       7 UNK         0.0281 
     36 CB         27.7482  -51.9823  -56.5794 C.3       7 UNK        -0.1963 
     37 N          28.2106  -49.8213  -55.5293 N.am      7 UNK        -0.4444 
     38 C          28.0461  -48.6095  -54.9792 C.2       7 UNK         0.5104 
     39 O          26.9440  -48.1076  -54.7589 O.2       7 UNK        -0.5100 
     40 CA         29.3108  -47.7819  -54.6953 C.3       6 UNK         0.0396 
     41 CB         29.6142  -47.7473  -53.1915 C.3       6 UNK        -0.1801 
     42 N          30.5039  -48.2075  -55.4390 N.am      6 UNK        -0.4747 
     43 C          30.6215  -48.2008  -56.7777 C.2       6 UNK         0.5012 
     44 O          29.6971  -47.8913  -57.5322 O.2       6 UNK        -0.5003 
     45 CA         31.9449  -48.6930  -57.3913 C.3       5 UNK         0.0782 
     46 C46        32.9700  -47.5619  -57.6637 C.3       11 UNK        -0.0868 
     47 S47        33.7392  -46.8053  -56.1867 S.3       11 UNK        -0.2515 
     48 C48        33.4248  -45.0307  -56.4626 C.3       11 UNK         0.0199 
     49 N          32.5108  -49.7995  -56.6143 N.am      5 UNK        -0.4607 
     50 C          32.6056  -51.0593  -57.0629 C.2       4 UNK         0.5031 
     51 O          32.2632  -51.4121  -58.1920 O.2       4 UNK        -0.5119 
     52 CA         33.1766  -52.1217  -56.1064 C.3       4 UNK         0.0263 
     53 CB         34.6833  -52.3043  -56.3518 C.3       4 UNK        -0.1967 
     54 N          32.9544  -51.8353  -54.6890 N.am      4 UNK        -0.4237 
     55 C          31.7578  -51.7422  -54.0920 C.2       3 UNK         0.4908 
     56 O          30.6834  -51.9120  -54.6682 O.2       3 UNK        -0.5102 
     57 CA         31.7608  -51.3608  -52.6008 C.3       3 UNK         0.0241 
     58 CB         31.7268  -52.6247  -51.7266 C.3       3 UNK        -0.1971 
     59 N          32.8889  -50.5131  -52.1883 N.am      3 UNK        -0.4139 
     60 C          33.1870  -49.3171  -52.7143 C.2       2 UNK         0.5016 
     61 O          32.5913  -48.8185  -53.6720 O.2       2 UNK        -0.5319 
     62 CA         34.3665  -48.5617  -52.1015 C.3       2 UNK         0.0286 
     63 CB         35.6513  -48.8085  -52.9107 C.3       2 UNK        -0.1963 
     64 N          34.0365  -47.1400  -52.1162 N.am      2 UNK        -0.4790 
     65 C          34.4242  -46.2483  -51.1976 C.2       1 UNK         0.5024 
     66 O          35.1950  -46.5299  -50.2761 O.2       1 UNK        -0.4888 
     67 H67        35.7908  -42.1080  -49.1053 H         1 UNK         0.0892 
     68 H68        34.5052  -41.9796  -47.9040 H         1 UNK         0.0892 
     69 H69        35.8214  -43.1333  -47.6696 H         1 UNK         0.0892 
     70 H70        35.1777  -43.2320  -50.9007 H         1 UNK         0.3107 
     71 H71        34.1969  -44.5026  -52.3635 H         1 UNK         0.0773 
     72 H72        31.9026  -45.4844  -52.0450 H         1 UNK         0.0680 
     73 H73        31.9337  -45.0682  -50.3603 H         1 UNK         0.0680 
     74 H74        29.5620  -42.6522  -52.8083 H         1 UNK         0.0650 
     75 H75        29.6422  -44.3244  -52.3129 H         1 UNK         0.0650 
     76 H76        32.6520  -44.1769  -54.0295 H         1 UNK         0.1397 
     77 H77        31.1082  -45.0292  -57.9170 H         1 UNK         0.1363 
     78 H78        28.4386  -43.8397  -54.7885 H         1 UNK         0.1355 
     79 H79        28.7359  -45.4602  -58.0874 H         1 UNK         0.0707 
     80 H80        27.6125  -44.9951  -56.8496 H         1 UNK         0.0707 
     81 H81        27.1536  -42.5107  -56.2715 H         1 UNK         0.1034 
     82 H82        27.1106  -41.2254  -57.4252 H         1 UNK         0.1034 
     83 H83        24.8301  -41.9971  -56.9093 H         1 UNK         0.0482 
     84 H84        24.6973  -40.5575  -60.2121 H         1 UNK         0.3460 
     85 H85        25.3450  -40.1903  -58.6360 H         1 UNK         0.3460 
     86 H86        24.9027  -44.5850  -58.1366 H         1 UNK         0.2989 
     87 H87        24.7544  -46.3158  -54.9860 H         1 UNK         0.0559 
     88 H88        22.6454  -45.9108  -57.1656 H         1 UNK         0.0848 
     89 H89        22.4352  -45.6197  -55.4480 H         1 UNK         0.0848 
     90 H90        22.7105  -47.2549  -56.0261 H         1 UNK         0.0848 
     91 H91        25.9061  -47.5294  -56.3416 H         1 UNK         0.3144 
     92 H92        25.3980  -48.8259  -59.3707 H         1 UNK         0.0727 
     93 H93        27.8557  -47.0077  -59.4113 H         1 UNK         0.0790 
     94 H94        26.5827  -47.0226  -60.6207 H         1 UNK         0.0790 
     95 H95        27.5972  -48.4374  -60.4013 H         1 UNK         0.0790 
     96 H96        27.7882  -48.7375  -57.6709 H         1 UNK         0.3215 
     97 H97        26.4718  -50.9081  -55.2260 H         1 UNK         0.0863 
     98 H98        28.2516  -52.5301  -55.7826 H         1 UNK         0.0808 
     99 H99        28.4742  -51.8022  -57.3734 H         1 UNK         0.0808 
    100 H100       26.9773  -52.6401  -56.9834 H         1 UNK         0.0808 
    101 H101       29.1561  -50.1655  -55.6332 H         1 UNK         0.3118 
    102 H102       29.0866  -46.7639  -55.0104 H         1 UNK         0.0546 
    103 H103       28.7608  -47.3674  -52.6285 H         1 UNK         0.0828 
    104 H104       30.4590  -47.0946  -52.9771 H         1 UNK         0.0828 
    105 H105       29.8471  -48.7382  -52.8048 H         1 UNK         0.0828 
    106 H106       31.3141  -48.4550  -54.8721 H         1 UNK         0.3005 
    107 H107       31.6563  -49.0637  -58.3777 H         1 UNK         0.1257 
    108 H108       32.5159  -46.7920  -58.2874 H         1 UNK         0.0775 
    109 H109       33.7830  -47.9667  -58.2682 H         1 UNK         0.0775 
    110 H110       34.1658  -44.4549  -55.9060 H         1 UNK         0.0840 
    111 H111       33.5777  -44.7783  -57.5130 H         1 UNK         0.0840 
    112 H112       32.7957  -49.5815  -55.6665 H         1 UNK         0.2987 
    113 H113       32.6747  -53.0649  -56.3328 H         1 UNK         0.0785 
    114 H114       35.2433  -51.3981  -56.1165 H         1 UNK         0.0798 
    115 H115       34.8818  -52.5475  -57.3967 H         1 UNK         0.0798 
    116 H116       35.0892  -53.1177  -55.7501 H         1 UNK         0.0798 
    117 H117       33.7760  -51.6738  -54.1257 H         1 UNK         0.3079 
    118 H118       30.8449  -50.7986  -52.4135 H         1 UNK         0.0794 
    119 H119       32.6349  -53.2185  -51.8383 H         1 UNK         0.0786 
    120 H120       30.8845  -53.2636  -51.9965 H         1 UNK         0.0786 
    121 H121       31.6147  -52.3755  -50.6712 H         1 UNK         0.0786 
    122 H122       33.4432  -50.8541  -51.4155 H         1 UNK         0.3032 
    123 H123       34.5077  -48.9004  -51.0723 H         1 UNK         0.1094 
    124 H124       36.4971  -48.2686  -52.4849 H         1 UNK         0.0794 
    125 H125       35.9138  -49.8671  -52.9189 H         1 UNK         0.0794 
    126 H126       35.5400  -48.4898  -53.9484 H         1 UNK         0.0794 
    127 H127       33.3928  -46.8776  -52.8531 H         1 UNK         0.3016 
@<TRIPOS>BOND
     1    1    2 1    
     2    1   67 1    
     3    1   68 1    
     4    1   69 1    
     5    2    3 2    
     6    2    4 am   BACKBONE|DICT|INTERRES
     7    4    5 1    
     8    4   70 1    
     9    5    6 1    
    10    5   65 1    
    11    5   71 1    
    12    6    7 1    
    13    6   72 1    
    14    6   73 1    
    15    7    8 1    
    16    8    9 1    
    17    8   74 1    
    18    8   75 1    
    19    9   10 ar   
    20    9   14 ar   
    21   10   11 ar   
    22   10   76 1    
    23   11   12 ar   
    24   11   48 1    
    25   12   13 ar   
    26   12   77 1    
    27   13   14 ar   
    28   13   15 1    
    29   14   78 1    
    30   15   16 1    
    31   15   79 1    
    32   15   80 1    
    33   16   17 1    
    34   17   18 1    
    35   17   81 1    
    36   17   82 1    
    37   18   19 1    
    38   18   22 1    
    39   18   83 1    
    40   19   20 am   BACKBONE|DICT|INTERRES
    41   19   21 2    
    42   20   84 1    
    43   20   85 1    
    44   22   23 am   BACKBONE|DICT|INTERRES
    45   22   86 1    
    46   23   24 2    
    47   23   25 1    
    48   25   26 1    
    49   25   27 1    
    50   25   87 1    
    51   26   88 1    
    52   26   89 1    
    53   26   90 1    
    54   27   28 am   BACKBONE|DICT|INTERRES
    55   27   91 1    
    56   28   29 2    
    57   28   30 1    
    58   30   31 1    
    59   30   32 1    
    60   30   92 1    
    61   31   93 1    
    62   31   94 1    
    63   31   95 1    
    64   32   33 am   BACKBONE|DICT|INTERRES
    65   32   96 1    
    66   33   34 2    
    67   33   35 1    
    68   35   36 1    
    69   35   37 1    
    70   35   97 1    
    71   36   98 1    
    72   36   99 1    
    73   36  100 1    
    74   37   38 am   BACKBONE|DICT|INTERRES
    75   37  101 1    
    76   38   39 2    
    77   38   40 1    
    78   40   41 1    
    79   40   42 1    
    80   40  102 1    
    81   41  103 1    
    82   41  104 1    
    83   41  105 1    
    84   42   43 am   BACKBONE|DICT|INTERRES
    85   42  106 1    
    86   43   44 2    
    87   43   45 1    
    88   45   46 1    
    89   45   49 1    
    90   45  107 1    
    91   46   47 1    
    92   46  108 1    
    93   46  109 1    
    94   47   48 1    
    95   48  110 1    
    96   48  111 1    
    97   49   50 am   BACKBONE|DICT|INTERRES
    98   49  112 1    
    99   50   51 2    
   100   50   52 1    
   101   52   53 1    
   102   52   54 1    
   103   52  113 1    
   104   53  114 1    
   105   53  115 1    
   106   53  116 1    
   107   54   55 am   BACKBONE|DICT|INTERRES
   108   54  117 1    
   109   55   56 2    
   110   55   57 1    
   111   57   58 1    
   112   57   59 1    
   113   57  118 1    
   114   58  119 1    
   115   58  120 1    
   116   58  121 1    
   117   59   60 am   BACKBONE|DICT|INTERRES
   118   59  122 1    
   119   60   61 2    
   120   60   62 1    
   121   62   63 1    
   122   62   64 1    
   123   62  123 1    
   124   63  124 1    
   125   63  125 1    
   126   63  126 1    
   127   64   65 am   BACKBONE|DICT|INTERRES
   128   64  127 1    
   129   65   66 2    
@<TRIPOS>SUBSTRUCTURE
     1 UNK         1 GROUP             0       ****    0 ROOT    
