@<TRIPOS>MOLECULE
3R134
127   129    1
SMALL
USER_CHARGES


@<TRIPOS>ATOM
      1 CA         29.1081  -47.1880  -52.5687 C.3       0 UNK        -0.1968 
      2 C          30.5718  -46.7849  -52.4920 C.2       0 UNK         0.4852 
      3 O          31.3686  -47.2742  -53.2927 O.2       0 UNK        -0.5359 
      4 N          30.9210  -45.9127  -51.5344 N.am      1 UNK        -0.4300 
      5 CA         32.2651  -45.3735  -51.2832 C.3       1 UNK         0.0863 
      6 C6         32.7439  -44.3992  -52.3940 C.3       11 UNK        -0.0953 
      7 S7         31.7197  -42.8931  -52.4853 S.3       11 UNK        -0.2369 
      8 C8         32.6493  -41.9008  -53.6989 C.3       11 UNK         0.0226 
      9 C9         32.4736  -42.4466  -55.1072 C.ar      11 UNK        -0.0699 
     10 C10        33.3141  -43.4601  -55.5749 C.ar      11 UNK        -0.0804 
     11 C11        33.0974  -44.0377  -56.8266 C.ar      11 UNK        -0.0871 
     12 C12        32.0808  -43.5392  -57.6477 C.ar      11 UNK        -0.1008 
     13 C13        31.2386  -42.5201  -57.1962 C.ar      11 UNK        -0.0735 
     14 C14        31.4430  -41.9730  -55.9252 C.ar      11 UNK        -0.0945 
     15 C15        30.0948  -42.0379  -58.0775 C.3       11 UNK         0.0169 
     16 S16        28.6657  -43.1726  -58.0270 S.3       11 UNK        -0.2669 
     17 C17        27.9856  -42.8453  -56.3636 C.3       11 UNK        -0.0850 
     18 CA         27.9106  -44.1252  -55.4785 C.3       10 UNK         0.0855 
     19 C          27.7012  -43.7967  -53.9644 C.2       10 UNK         0.5543 
     20 N          27.0004  -44.6210  -53.1920 N.am      10 UNK        -0.7343 
     21 O          28.1925  -42.7856  -53.4706 O.2       10 UNK        -0.5027 
     22 N          26.9751  -45.1370  -56.0078 N.am      10 UNK        -0.4495 
     23 C          25.6396  -45.0079  -56.0729 C.2       10 UNK         0.4903 
     24 O          25.0371  -43.9609  -55.8335 O.2       10 UNK        -0.4860 
     25 CA         24.8127  -46.2621  -56.4126 C.3       9 UNK         0.0227 
     26 CB         24.3178  -46.2057  -57.8652 C.3       9 UNK        -0.1964 
     27 N          25.5126  -47.5276  -56.1543 N.am      9 UNK        -0.4231 
     28 C          25.8568  -47.9601  -54.9294 C.2       9 UNK         0.5014 
     29 O          25.6063  -47.3239  -53.9034 O.2       9 UNK        -0.5270 
     30 CA         26.6654  -49.2673  -54.7980 C.3       8 UNK         0.0284 
     31 CB         26.1254  -50.1858  -53.6827 C.3       8 UNK        -0.1977 
     32 N          26.8765  -50.0056  -56.0469 N.am      8 UNK        -0.4342 
     33 C          25.9840  -50.6601  -56.8004 C.2       8 UNK         0.5039 
     34 O          24.7915  -50.7854  -56.5181 O.2       8 UNK        -0.5547 
     35 CA         26.5443  -51.2232  -58.1229 C.3       7 UNK         0.0281 
     36 CB         25.4476  -51.7557  -59.0701 C.3       7 UNK        -0.1963 
     37 N          27.4089  -50.2470  -58.8061 N.am      7 UNK        -0.4444 
     38 C          27.0550  -49.0195  -59.2205 C.2       7 UNK         0.5104 
     39 O          25.9075  -48.5824  -59.1527 O.2       7 UNK        -0.5100 
     40 CA         28.1920  -48.1182  -59.7431 C.3       6 UNK         0.0396 
     41 CB         27.7588  -46.6501  -59.9467 C.3       6 UNK        -0.1801 
     42 N          29.3942  -48.1840  -58.9028 N.am      6 UNK        -0.4747 
     43 C          29.4815  -47.8872  -57.5963 C.2       6 UNK         0.5012 
     44 O          28.5438  -47.4779  -56.9067 O.2       6 UNK        -0.5003 
     45 CA         30.8680  -48.0758  -56.9516 C.3       5 UNK         0.0782 
     46 C46        31.5235  -46.6940  -56.7589 C.3       11 UNK        -0.0868 
     47 S47        33.3078  -46.7634  -56.3853 S.3       11 UNK        -0.2515 
     48 C48        33.8995  -45.2621  -57.2469 C.3       11 UNK         0.0199 
     49 N          30.7911  -48.8379  -55.7004 N.am      5 UNK        -0.4607 
     50 C          30.2897  -50.0770  -55.5862 C.2       4 UNK         0.5031 
     51 O          29.7737  -50.6868  -56.5262 O.2       4 UNK        -0.5119 
     52 CA         30.3396  -50.7416  -54.1940 C.3       4 UNK         0.0263 
     53 CB         30.2396  -52.2797  -54.2695 C.3       4 UNK        -0.1967 
     54 N          31.4929  -50.3405  -53.3796 N.am      4 UNK        -0.4237 
     55 C          32.7910  -50.4556  -53.6922 C.2       3 UNK         0.4908 
     56 O          33.2250  -50.9584  -54.7318 O.2       3 UNK        -0.5102 
     57 CA         33.7762  -49.9313  -52.6454 C.3       3 UNK         0.0241 
     58 CB         34.2763  -51.0760  -51.7449 C.3       3 UNK        -0.1971 
     59 N          34.8981  -49.3153  -53.3486 N.am      3 UNK        -0.4139 
     60 C          35.6471  -48.2757  -52.9605 C.2       2 UNK         0.5016 
     61 O          36.5098  -47.7966  -53.6962 O.2       2 UNK        -0.5319 
     62 CA         35.4006  -47.6287  -51.5846 C.3       2 UNK         0.0286 
     63 CB         36.6649  -46.9521  -51.0203 C.3       2 UNK        -0.1963 
     64 N          34.3535  -46.6217  -51.7346 N.am      2 UNK        -0.4790 
     65 C          33.2675  -46.5063  -50.9595 C.2       1 UNK         0.5024 
     66 O          33.0359  -47.2484  -50.0025 O.2       1 UNK        -0.4888 
     67 H67        28.7170  -46.9644  -53.5609 H         1 UNK         0.0892 
     68 H68        28.9995  -48.2562  -52.3877 H         1 UNK         0.0892 
     69 H69        28.4994  -46.6585  -51.8363 H         1 UNK         0.0892 
     70 H70        30.2103  -45.5778  -50.8997 H         1 UNK         0.3107 
     71 H71        32.1885  -44.7977  -50.3593 H         1 UNK         0.0773 
     72 H72        32.7273  -44.9009  -53.3619 H         1 UNK         0.0680 
     73 H73        33.7701  -44.0741  -52.2136 H         1 UNK         0.0680 
     74 H74        32.2963  -40.8696  -53.6529 H         1 UNK         0.0650 
     75 H75        33.7055  -41.8749  -53.4266 H         1 UNK         0.0650 
     76 H76        34.0995  -43.8455  -54.9399 H         1 UNK         0.1397 
     77 H77        31.9051  -43.9807  -58.6193 H         1 UNK         0.1363 
     78 H78        30.7871  -41.1947  -55.5601 H         1 UNK         0.1355 
     79 H79        29.7782  -41.0342  -57.7893 H         1 UNK         0.0707 
     80 H80        30.4426  -41.9601  -59.1087 H         1 UNK         0.0707 
     81 H81        27.0018  -42.3883  -56.4725 H         1 UNK         0.1034 
     82 H82        28.5999  -42.0836  -55.8842 H         1 UNK         0.1034 
     83 H83        28.8934  -44.5975  -55.5130 H         1 UNK         0.0482 
     84 H84        26.5632  -45.4519  -53.5713 H         1 UNK         0.3460 
     85 H85        26.8691  -44.3845  -52.2221 H         1 UNK         0.3460 
     86 H86        27.3931  -46.0295  -56.2559 H         1 UNK         0.2989 
     87 H87        23.9321  -46.2481  -55.7670 H         1 UNK         0.0559 
     88 H88        23.6819  -45.3339  -58.0242 H         1 UNK         0.0848 
     89 H89        23.7298  -47.0868  -58.1230 H         1 UNK         0.0848 
     90 H90        25.1435  -46.1320  -58.5716 H         1 UNK         0.0848 
     91 H91        25.7743  -48.0784  -56.9632 H         1 UNK         0.3144 
     92 H92        27.6604  -48.9461  -54.4941 H         1 UNK         0.0727 
     93 H93        26.7389  -51.0800  -53.5722 H         1 UNK         0.0790 
     94 H94        25.1009  -50.5025  -53.8795 H         1 UNK         0.0790 
     95 H95        26.1251  -49.6740  -52.7195 H         1 UNK         0.0790 
     96 H96        27.8262  -49.9747  -56.4041 H         1 UNK         0.3215 
     97 H97        27.1825  -52.0653  -57.8494 H         1 UNK         0.0863 
     98 H98        25.8766  -52.1570  -59.9881 H         1 UNK         0.0808 
     99 H99        24.7335  -50.9787  -59.3446 H         1 UNK         0.0808 
    100 H100       24.8832  -52.5604  -58.5974 H         1 UNK         0.0808 
    101 H101       28.3873  -50.4973  -58.8668 H         1 UNK         0.3118 
    102 H102       28.4699  -48.5176  -60.7194 H         1 UNK         0.0546 
    103 H103       27.4752  -46.1747  -59.0076 H         1 UNK         0.0828 
    104 H104       26.9033  -46.5811  -60.6195 H         1 UNK         0.0828 
    105 H105       28.5620  -46.0582  -60.3850 H         1 UNK         0.0828 
    106 H106       30.2257  -48.5142  -59.3742 H         1 UNK         0.3005 
    107 H107       31.4884  -48.6592  -57.6352 H         1 UNK         0.1257 
    108 H108       31.4006  -46.1156  -57.6749 H         1 UNK         0.0775 
    109 H109       31.0222  -46.1292  -55.9697 H         1 UNK         0.0775 
    110 H110       34.9558  -45.1102  -57.0204 H         1 UNK         0.0840 
    111 H111       33.8345  -45.4149  -58.3254 H         1 UNK         0.0840 
    112 H112       31.1543  -48.3695  -54.8733 H         1 UNK         0.2987 
    113 H113       29.4570  -50.3863  -53.6620 H         1 UNK         0.0785 
    114 H114       30.2535  -52.7280  -53.2762 H         1 UNK         0.0798 
    115 H115       31.0618  -52.7089  -54.8432 H         1 UNK         0.0798 
    116 H116       29.3105  -52.5904  -54.7493 H         1 UNK         0.0798 
    117 H117       31.2642  -49.8796  -52.5101 H         1 UNK         0.3079 
    118 H118       33.2545  -49.1897  -52.0407 H         1 UNK         0.0794 
    119 H119       33.4459  -51.5474  -51.2174 H         1 UNK         0.0786 
    120 H120       34.9796  -50.7263  -50.9900 H         1 UNK         0.0786 
    121 H121       34.7750  -51.8530  -52.3260 H         1 UNK         0.0786 
    122 H122       35.0328  -49.6880  -54.2799 H         1 UNK         0.3032 
    123 H123       35.1070  -48.4027  -50.8746 H         1 UNK         0.1094 
    124 H124       37.0062  -46.1312  -51.6523 H         1 UNK         0.0794 
    125 H125       36.4847  -46.5508  -50.0229 H         1 UNK         0.0794 
    126 H126       37.4852  -47.6664  -50.9390 H         1 UNK         0.0794 
    127 H127       34.4390  -46.0220  -52.5436 H         1 UNK         0.3016 
@<TRIPOS>BOND
     1    1    2 1    
     2    1   67 1    
     3    1   68 1    
     4    1   69 1    
     5    2    3 2    
     6    2    4 am   BACKBONE|DICT|INTERRES
     7    4    5 1    
     8    4   70 1    
     9    5    6 1    
    10    5   65 1    
    11    5   71 1    
    12    6    7 1    
    13    6   72 1    
    14    6   73 1    
    15    7    8 1    
    16    8    9 1    
    17    8   74 1    
    18    8   75 1    
    19    9   10 ar   
    20    9   14 ar   
    21   10   11 ar   
    22   10   76 1    
    23   11   12 ar   
    24   11   48 1    
    25   12   13 ar   
    26   12   77 1    
    27   13   14 ar   
    28   13   15 1    
    29   14   78 1    
    30   15   16 1    
    31   15   79 1    
    32   15   80 1    
    33   16   17 1    
    34   17   18 1    
    35   17   81 1    
    36   17   82 1    
    37   18   19 1    
    38   18   22 1    
    39   18   83 1    
    40   19   20 am   BACKBONE|DICT|INTERRES
    41   19   21 2    
    42   20   84 1    
    43   20   85 1    
    44   22   23 am   BACKBONE|DICT|INTERRES
    45   22   86 1    
    46   23   24 2    
    47   23   25 1    
    48   25   26 1    
    49   25   27 1    
    50   25   87 1    
    51   26   88 1    
    52   26   89 1    
    53   26   90 1    
    54   27   28 am   BACKBONE|DICT|INTERRES
    55   27   91 1    
    56   28   29 2    
    57   28   30 1    
    58   30   31 1    
    59   30   32 1    
    60   30   92 1    
    61   31   93 1    
    62   31   94 1    
    63   31   95 1    
    64   32   33 am   BACKBONE|DICT|INTERRES
    65   32   96 1    
    66   33   34 2    
    67   33   35 1    
    68   35   36 1    
    69   35   37 1    
    70   35   97 1    
    71   36   98 1    
    72   36   99 1    
    73   36  100 1    
    74   37   38 am   BACKBONE|DICT|INTERRES
    75   37  101 1    
    76   38   39 2    
    77   38   40 1    
    78   40   41 1    
    79   40   42 1    
    80   40  102 1    
    81   41  103 1    
    82   41  104 1    
    83   41  105 1    
    84   42   43 am   BACKBONE|DICT|INTERRES
    85   42  106 1    
    86   43   44 2    
    87   43   45 1    
    88   45   46 1    
    89   45   49 1    
    90   45  107 1    
    91   46   47 1    
    92   46  108 1    
    93   46  109 1    
    94   47   48 1    
    95   48  110 1    
    96   48  111 1    
    97   49   50 am   BACKBONE|DICT|INTERRES
    98   49  112 1    
    99   50   51 2    
   100   50   52 1    
   101   52   53 1    
   102   52   54 1    
   103   52  113 1    
   104   53  114 1    
   105   53  115 1    
   106   53  116 1    
   107   54   55 am   BACKBONE|DICT|INTERRES
   108   54  117 1    
   109   55   56 2    
   110   55   57 1    
   111   57   58 1    
   112   57   59 1    
   113   57  118 1    
   114   58  119 1    
   115   58  120 1    
   116   58  121 1    
   117   59   60 am   BACKBONE|DICT|INTERRES
   118   59  122 1    
   119   60   61 2    
   120   60   62 1    
   121   62   63 1    
   122   62   64 1    
   123   62  123 1    
   124   63  124 1    
   125   63  125 1    
   126   63  126 1    
   127   64   65 am   BACKBONE|DICT|INTERRES
   128   64  127 1    
   129   65   66 2    
@<TRIPOS>SUBSTRUCTURE
     1 UNK         1 GROUP             0       ****    0 ROOT    
