@<TRIPOS>MOLECULE
3R134
127   129    1
SMALL
USER_CHARGES


@<TRIPOS>ATOM
      1 CA         37.5602  -45.6739  -54.4704 C.3       0 UNK        -0.1968 
      2 C          36.5496  -45.3408  -53.3828 C.2       0 UNK         0.4852 
      3 O          36.9181  -45.2695  -52.2099 O.2       0 UNK        -0.5359 
      4 N          35.2801  -45.1510  -53.7705 N.am      1 UNK        -0.4300 
      5 CA         34.1392  -44.7899  -52.9102 C.3       1 UNK         0.0863 
      6 C6         34.2740  -43.4007  -52.2198 C.3       11 UNK        -0.0953 
      7 S7         34.7588  -42.0639  -53.3697 S.3       11 UNK        -0.2369 
      8 C8         33.1526  -41.3354  -53.8344 C.3       11 UNK         0.0226 
      9 C9         32.2237  -42.3325  -54.5170 C.ar      11 UNK        -0.0699 
     10 C10        32.6493  -43.0489  -55.6415 C.ar      11 UNK        -0.0804 
     11 C11        31.8158  -44.0016  -56.2338 C.ar      11 UNK        -0.0871 
     12 C12        30.5305  -44.2009  -55.7222 C.ar      11 UNK        -0.1008 
     13 C13        30.0737  -43.4588  -54.6281 C.ar      11 UNK        -0.0735 
     14 C14        30.9319  -42.5368  -54.0213 C.ar      11 UNK        -0.0945 
     15 C15        28.6529  -43.6440  -54.1083 C.3       11 UNK         0.0169 
     16 S16        27.4259  -43.2880  -55.4062 S.3       11 UNK        -0.2669 
     17 C17        25.8417  -43.4599  -54.5108 C.3       11 UNK        -0.0850 
     18 CA         25.0486  -44.7476  -54.8694 C.3       10 UNK         0.0855 
     19 C          23.6651  -44.7264  -54.1622 C.2       10 UNK         0.5543 
     20 N          23.5319  -45.4088  -53.0332 N.am      10 UNK        -0.7343 
     21 O          22.7350  -44.0521  -54.6007 O.2       10 UNK        -0.5027 
     22 N          24.9825  -44.9412  -56.3270 N.am      10 UNK        -0.4495 
     23 C          24.3082  -45.8812  -57.0037 C.2       10 UNK         0.4903 
     24 O          23.5402  -46.7015  -56.5003 O.2       10 UNK        -0.4860 
     25 CA         24.5898  -45.9546  -58.5092 C.3       9 UNK         0.0227 
     26 CB         24.9163  -44.5787  -59.1382 C.3       9 UNK        -0.1964 
     27 N          25.6831  -46.9055  -58.7166 N.am      9 UNK        -0.4231 
     28 C          26.0486  -47.4234  -59.8983 C.2       9 UNK         0.5014 
     29 O          25.4718  -47.1729  -60.9580 O.2       9 UNK        -0.5270 
     30 CA         27.2687  -48.3656  -59.9331 C.3       8 UNK         0.0284 
     31 CB         28.5216  -47.5938  -60.3785 C.3       8 UNK        -0.1977 
     32 N          27.5409  -49.0319  -58.6577 N.am      8 UNK        -0.4342 
     33 C          26.7964  -50.0276  -58.1520 C.2       8 UNK         0.5039 
     34 O          25.8444  -50.5308  -58.7503 O.2       8 UNK        -0.5547 
     35 CA         27.1489  -50.5560  -56.7447 C.3       7 UNK         0.0281 
     36 CB         27.9210  -51.8814  -56.8530 C.3       7 UNK        -0.1963 
     37 N          27.9128  -49.6289  -55.9030 N.am      7 UNK        -0.4444 
     38 C          27.5551  -48.3751  -55.5948 C.2       7 UNK         0.5104 
     39 O          26.4986  -47.8620  -55.9521 O.2       7 UNK        -0.5100 
     40 CA         28.5745  -47.5167  -54.8319 C.3       6 UNK         0.0396 
     41 CB         28.3320  -47.6022  -53.3187 C.3       6 UNK        -0.1801 
     42 N          29.9724  -47.8437  -55.1276 N.am      6 UNK        -0.4747 
     43 C          30.5439  -47.8122  -56.3427 C.2       6 UNK         0.5012 
     44 O          29.9383  -47.5452  -57.3808 O.2       6 UNK        -0.5003 
     45 CA         32.0363  -48.1814  -56.3944 C.3       5 UNK         0.0782 
     46 C46        32.9212  -47.0532  -55.7947 C.3       11 UNK        -0.0868 
     47 S47        33.6525  -45.9483  -57.0463 S.3       11 UNK        -0.2515 
     48 C48        32.2920  -44.7980  -57.4409 C.3       11 UNK         0.0199 
     49 N          32.2328  -49.4542  -55.6990 N.am      5 UNK        -0.4607 
     50 C          31.9659  -50.6592  -56.2203 C.2       4 UNK         0.5031 
     51 O          31.6440  -50.8379  -57.3945 O.2       4 UNK        -0.5119 
     52 CA         32.0611  -51.8734  -55.2762 C.3       4 UNK         0.0263 
     53 CB         33.4282  -52.5601  -55.4245 C.3       4 UNK        -0.1967 
     54 N          31.8407  -51.5389  -53.8656 N.am      4 UNK        -0.4237 
     55 C          30.6720  -51.1281  -53.3513 C.2       3 UNK         0.4908 
     56 O          29.6328  -51.0384  -54.0035 O.2       3 UNK        -0.5102 
     57 CA         30.6790  -50.6844  -51.8755 C.3       3 UNK         0.0241 
     58 CB         30.4315  -51.8875  -50.9518 C.3       3 UNK        -0.1971 
     59 N          31.9079  -49.9908  -51.4640 N.am      3 UNK        -0.4139 
     60 C          32.4056  -48.8944  -52.0541 C.2       2 UNK         0.5016 
     61 O          31.8712  -48.3448  -53.0212 O.2       2 UNK        -0.5319 
     62 CA         33.7520  -48.3744  -51.5198 C.3       2 UNK         0.0286 
     63 CB         34.8627  -49.4215  -51.7220 C.3       2 UNK        -0.1963 
     64 N          34.1531  -47.1505  -52.2139 N.am      2 UNK        -0.4790 
     65 C          33.7255  -45.9131  -51.9286 C.2       1 UNK         0.5024 
     66 O          33.0143  -45.6517  -50.9566 O.2       1 UNK        -0.4888 
     67 H67        37.0971  -45.7307  -55.4556 H         1 UNK         0.0892 
     68 H68        38.3372  -44.9107  -54.5052 H         1 UNK         0.0892 
     69 H69        38.0334  -46.6332  -54.2626 H         1 UNK         0.0892 
     70 H70        35.0589  -45.2176  -54.7547 H         1 UNK         0.3107 
     71 H71        33.2894  -44.7238  -53.5871 H         1 UNK         0.0773 
     72 H72        35.0216  -43.4444  -51.4263 H         1 UNK         0.0680 
     73 H73        33.3370  -43.1198  -51.7356 H         1 UNK         0.0680 
     74 H74        33.3296  -40.4994  -54.5121 H         1 UNK         0.0650 
     75 H75        32.6881  -40.9157  -52.9408 H         1 UNK         0.0650 
     76 H76        33.6430  -42.8870  -56.0367 H         1 UNK         0.1397 
     77 H77        29.8699  -44.9160  -56.1920 H         1 UNK         0.1363 
     78 H78        30.5912  -41.9711  -53.1649 H         1 UNK         0.1355 
     79 H79        28.5250  -44.6620  -53.7429 H         1 UNK         0.0707 
     80 H80        28.4677  -42.9849  -53.2587 H         1 UNK         0.0707 
     81 H81        26.0252  -43.4165  -53.4355 H         1 UNK         0.1034 
     82 H82        25.2460  -42.5748  -54.7444 H         1 UNK         0.1034 
     83 H83        25.6108  -45.6006  -54.4850 H         1 UNK         0.0482 
     84 H84        22.6464  -45.3900  -52.5517 H         1 UNK         0.3460 
     85 H85        24.2915  -45.9568  -52.6609 H         1 UNK         0.3460 
     86 H86        25.5889  -44.3292  -56.8523 H         1 UNK         0.2989 
     87 H87        23.6901  -46.3484  -58.9865 H         1 UNK         0.0559 
     88 H88        24.1735  -43.8307  -58.8570 H         1 UNK         0.0848 
     89 H89        24.9111  -44.6307  -60.2268 H         1 UNK         0.0848 
     90 H90        25.8961  -44.2076  -58.8353 H         1 UNK         0.0848 
     91 H91        26.1479  -47.2230  -57.8693 H         1 UNK         0.3144 
     92 H92        27.0656  -49.1363  -60.6799 H         1 UNK         0.0727 
     93 H93        29.3924  -48.2469  -60.4387 H         1 UNK         0.0790 
     94 H94        28.7591  -46.7801  -59.6921 H         1 UNK         0.0790 
     95 H95        28.3773  -47.1534  -61.3661 H         1 UNK         0.0790 
     96 H96        28.3136  -48.6663  -58.1097 H         1 UNK         0.3215 
     97 H97        26.2043  -50.7491  -56.2325 H         1 UNK         0.0863 
     98 H98        28.0711  -52.3354  -55.8733 H         1 UNK         0.0808 
     99 H99        28.9008  -51.7389  -57.3108 H         1 UNK         0.0808 
    100 H100       27.3770  -52.6044  -57.4624 H         1 UNK         0.0808 
    101 H101       28.7622  -49.9928  -55.4817 H         1 UNK         0.3118 
    102 H102       28.4150  -46.4856  -55.1479 H         1 UNK         0.0546 
    103 H103       28.4070  -48.6283  -52.9604 H         1 UNK         0.0828 
    104 H104       27.3343  -47.2422  -53.0648 H         1 UNK         0.0828 
    105 H105       29.0489  -46.9976  -52.7625 H         1 UNK         0.0828 
    106 H106       30.5647  -48.0692  -54.3303 H         1 UNK         0.3005 
    107 H107       32.3052  -48.3267  -57.4436 H         1 UNK         0.1257 
    108 H108       33.7693  -47.4949  -55.2697 H         1 UNK         0.0775 
    109 H109       32.4002  -46.4670  -55.0357 H         1 UNK         0.0775 
    110 H110       32.6368  -44.1027  -58.2075 H         1 UNK         0.0840 
    111 H111       31.4694  -45.3537  -57.8925 H         1 UNK         0.0840 
    112 H112       32.4134  -49.3827  -54.7054 H         1 UNK         0.2987 
    113 H113       31.2862  -52.5815  -55.5784 H         1 UNK         0.0785 
    114 H114       33.6099  -52.8472  -56.4613 H         1 UNK         0.0798 
    115 H115       33.4836  -53.4690  -54.8250 H         1 UNK         0.0798 
    116 H116       34.2456  -51.9049  -55.1201 H         1 UNK         0.0798 
    117 H117       32.6417  -51.5901  -53.2536 H         1 UNK         0.3079 
    118 H118       29.8547  -49.9827  -51.7422 H         1 UNK         0.0794 
    119 H119       30.3260  -51.5755  -49.9126 H         1 UNK         0.0786 
    120 H120       31.2438  -52.6136  -51.0046 H         1 UNK         0.0786 
    121 H121       29.5119  -52.4068  -51.2260 H         1 UNK         0.0786 
    122 H122       32.4042  -50.3858  -50.6779 H         1 UNK         0.3032 
    123 H123       33.6413  -48.1660  -50.4531 H         1 UNK         0.1094 
    124 H124       34.9679  -49.7047  -52.7703 H         1 UNK         0.0794 
    125 H125       35.8271  -49.0427  -51.3821 H         1 UNK         0.0794 
    126 H126       34.6646  -50.3319  -51.1553 H         1 UNK         0.0794 
    127 H127       34.7222  -47.2680  -53.0380 H         1 UNK         0.3016 
@<TRIPOS>BOND
     1    1    2 1    
     2    1   67 1    
     3    1   68 1    
     4    1   69 1    
     5    2    3 2    
     6    2    4 am   BACKBONE|DICT|INTERRES
     7    4    5 1    
     8    4   70 1    
     9    5    6 1    
    10    5   65 1    
    11    5   71 1    
    12    6    7 1    
    13    6   72 1    
    14    6   73 1    
    15    7    8 1    
    16    8    9 1    
    17    8   74 1    
    18    8   75 1    
    19    9   10 ar   
    20    9   14 ar   
    21   10   11 ar   
    22   10   76 1    
    23   11   12 ar   
    24   11   48 1    
    25   12   13 ar   
    26   12   77 1    
    27   13   14 ar   
    28   13   15 1    
    29   14   78 1    
    30   15   16 1    
    31   15   79 1    
    32   15   80 1    
    33   16   17 1    
    34   17   18 1    
    35   17   81 1    
    36   17   82 1    
    37   18   19 1    
    38   18   22 1    
    39   18   83 1    
    40   19   20 am   BACKBONE|DICT|INTERRES
    41   19   21 2    
    42   20   84 1    
    43   20   85 1    
    44   22   23 am   BACKBONE|DICT|INTERRES
    45   22   86 1    
    46   23   24 2    
    47   23   25 1    
    48   25   26 1    
    49   25   27 1    
    50   25   87 1    
    51   26   88 1    
    52   26   89 1    
    53   26   90 1    
    54   27   28 am   BACKBONE|DICT|INTERRES
    55   27   91 1    
    56   28   29 2    
    57   28   30 1    
    58   30   31 1    
    59   30   32 1    
    60   30   92 1    
    61   31   93 1    
    62   31   94 1    
    63   31   95 1    
    64   32   33 am   BACKBONE|DICT|INTERRES
    65   32   96 1    
    66   33   34 2    
    67   33   35 1    
    68   35   36 1    
    69   35   37 1    
    70   35   97 1    
    71   36   98 1    
    72   36   99 1    
    73   36  100 1    
    74   37   38 am   BACKBONE|DICT|INTERRES
    75   37  101 1    
    76   38   39 2    
    77   38   40 1    
    78   40   41 1    
    79   40   42 1    
    80   40  102 1    
    81   41  103 1    
    82   41  104 1    
    83   41  105 1    
    84   42   43 am   BACKBONE|DICT|INTERRES
    85   42  106 1    
    86   43   44 2    
    87   43   45 1    
    88   45   46 1    
    89   45   49 1    
    90   45  107 1    
    91   46   47 1    
    92   46  108 1    
    93   46  109 1    
    94   47   48 1    
    95   48  110 1    
    96   48  111 1    
    97   49   50 am   BACKBONE|DICT|INTERRES
    98   49  112 1    
    99   50   51 2    
   100   50   52 1    
   101   52   53 1    
   102   52   54 1    
   103   52  113 1    
   104   53  114 1    
   105   53  115 1    
   106   53  116 1    
   107   54   55 am   BACKBONE|DICT|INTERRES
   108   54  117 1    
   109   55   56 2    
   110   55   57 1    
   111   57   58 1    
   112   57   59 1    
   113   57  118 1    
   114   58  119 1    
   115   58  120 1    
   116   58  121 1    
   117   59   60 am   BACKBONE|DICT|INTERRES
   118   59  122 1    
   119   60   61 2    
   120   60   62 1    
   121   62   63 1    
   122   62   64 1    
   123   62  123 1    
   124   63  124 1    
   125   63  125 1    
   126   63  126 1    
   127   64   65 am   BACKBONE|DICT|INTERRES
   128   64  127 1    
   129   65   66 2    
@<TRIPOS>SUBSTRUCTURE
     1 UNK         1 GROUP             0       ****    0 ROOT    
