@<TRIPOS>MOLECULE
3R134
127   129    1
SMALL
USER_CHARGES


@<TRIPOS>ATOM
      1 CA         30.0747  -44.5023  -48.4433 C.3       0 UNK        -0.1968 
      2 C          31.3372  -44.2428  -49.2527 C.2       0 UNK         0.4852 
      3 O          31.9357  -43.1736  -49.1247 O.2       0 UNK        -0.5359 
      4 N          31.7440  -45.2121  -50.0785 N.am      1 UNK        -0.4300 
      5 CA         32.9488  -45.1815  -50.9059 C.3       1 UNK         0.0863 
      6 C6         32.8137  -44.2486  -52.1443 C.3       11 UNK        -0.0953 
      7 S7         34.4261  -43.5804  -52.6782 S.3       11 UNK        -0.2369 
      8 C8         33.9250  -42.0429  -53.5203 C.3       11 UNK         0.0226 
      9 C9         33.0131  -42.3102  -54.7103 C.ar      11 UNK        -0.0699 
     10 C10        33.4413  -43.1457  -55.7475 C.ar      11 UNK        -0.0804 
     11 C11        32.5873  -43.4477  -56.8105 C.ar      11 UNK        -0.0871 
     12 C12        31.3257  -42.8547  -56.8672 C.ar      11 UNK        -0.1008 
     13 C13        30.8838  -42.0203  -55.8401 C.ar      11 UNK        -0.0735 
     14 C14        31.7314  -41.7491  -54.7611 C.ar      11 UNK        -0.0945 
     15 C15        29.4770  -41.4490  -55.8988 C.3       11 UNK         0.0169 
     16 S16        28.2432  -42.7150  -55.4463 S.3       11 UNK        -0.2669 
     17 C17        26.9789  -42.5103  -56.7545 C.3       11 UNK        -0.0850 
     18 CA         26.8642  -43.7092  -57.7410 C.3       10 UNK         0.0855 
     19 C          28.1231  -43.9331  -58.6190 C.2       10 UNK         0.5543 
     20 N          28.4671  -42.9681  -59.4615 N.am      10 UNK        -0.7343 
     21 O          28.7910  -44.9633  -58.5518 O.2       10 UNK        -0.5027 
     22 N          26.4356  -44.9478  -57.0829 N.am      10 UNK        -0.4495 
     23 C          25.1746  -45.2384  -56.7458 C.2       10 UNK         0.4903 
     24 O          24.2312  -44.4580  -56.8888 O.2       10 UNK        -0.4860 
     25 CA         24.9317  -46.6430  -56.1642 C.3       9 UNK         0.0227 
     26 CB         23.4368  -46.9995  -56.0224 C.3       9 UNK        -0.1964 
     27 N          25.6531  -47.6803  -56.9062 N.am      9 UNK        -0.4231 
     28 C          25.5124  -48.0369  -58.1918 C.2       9 UNK         0.5014 
     29 O          24.6751  -47.5573  -58.9574 O.2       9 UNK        -0.5270 
     30 CA         26.4826  -49.1100  -58.7247 C.3       8 UNK         0.0284 
     31 CB         27.6219  -48.4489  -59.5176 C.3       8 UNK        -0.1977 
     32 N          27.0549  -49.9556  -57.6711 N.am      8 UNK        -0.4342 
     33 C          26.3624  -50.8590  -56.9619 C.2       8 UNK         0.5039 
     34 O          25.1868  -51.1503  -57.1861 O.2       8 UNK        -0.5547 
     35 CA         27.0900  -51.5255  -55.7821 C.3       7 UNK         0.0281 
     36 CB         27.9500  -52.7033  -56.2675 C.3       7 UNK        -0.1963 
     37 N          27.9145  -50.5836  -55.0176 N.am      7 UNK        -0.4444 
     38 C          27.4334  -49.5560  -54.3012 C.2       7 UNK         0.5104 
     39 O          26.2337  -49.3225  -54.1596 O.2       7 UNK        -0.5100 
     40 CA         28.4584  -48.5964  -53.6719 C.3       6 UNK         0.0396 
     41 CB         29.0067  -49.1617  -52.3529 C.3       6 UNK        -0.1801 
     42 N          29.5672  -48.2867  -54.5748 N.am      6 UNK        -0.4747 
     43 C          29.4518  -47.6273  -55.7373 C.2       6 UNK         0.5012 
     44 O          28.3951  -47.1482  -56.1473 O.2       6 UNK        -0.5003 
     45 CA         30.7220  -47.5291  -56.6035 C.3       5 UNK         0.0782 
     46 C46        31.5961  -46.3403  -56.1487 C.3       11 UNK        -0.0868 
     47 S47        33.1328  -46.1532  -57.1283 S.3       11 UNK        -0.2515 
     48 C48        32.9798  -44.4839  -57.8528 C.3       11 UNK         0.0199 
     49 N          31.4615  -48.7928  -56.5964 N.am      5 UNK        -0.4607 
     50 C          31.0398  -49.9293  -57.1619 C.2       4 UNK         0.5031 
     51 O          29.9760  -50.0386  -57.7708 O.2       4 UNK        -0.5119 
     52 CA         31.9441  -51.1592  -56.9792 C.3       4 UNK         0.0263 
     53 CB         33.0888  -51.1467  -58.0046 C.3       4 UNK        -0.1967 
     54 N          32.4955  -51.2549  -55.6238 N.am      4 UNK        -0.4237 
     55 C          31.7551  -51.4751  -54.5281 C.2       3 UNK         0.4908 
     56 O          30.5384  -51.6547  -54.5506 O.2       3 UNK        -0.5102 
     57 CA         32.4822  -51.4574  -53.1736 C.3       3 UNK         0.0241 
     58 CB         33.1141  -52.8283  -52.8835 C.3       3 UNK        -0.1971 
     59 N          33.4983  -50.4067  -53.0389 N.am      3 UNK        -0.4139 
     60 C          33.2727  -49.0924  -53.1754 C.2       2 UNK         0.5016 
     61 O          32.2012  -48.6136  -53.5525 O.2       2 UNK        -0.5319 
     62 CA         34.4581  -48.1594  -52.8694 C.3       2 UNK         0.0286 
     63 CB         35.3062  -47.9470  -54.1335 C.3       2 UNK        -0.1963 
     64 N          34.0335  -46.8507  -52.3611 N.am      2 UNK        -0.4790 
     65 C          33.3410  -46.6382  -51.2334 C.2       1 UNK         0.5024 
     66 O          33.0219  -47.5397  -50.4526 O.2       1 UNK        -0.4888 
     67 H67        29.6459  -45.4810  -48.6581 H         1 UNK         0.0892 
     68 H68        30.2962  -44.4558  -47.3774 H         1 UNK         0.0892 
     69 H69        29.3228  -43.7465  -48.6688 H         1 UNK         0.0892 
     70 H70        31.2615  -46.1018  -50.0949 H         1 UNK         0.3107 
     71 H71        33.7508  -44.8010  -50.2693 H         1 UNK         0.0773 
     72 H72        32.1790  -43.3950  -51.9021 H         1 UNK         0.0680 
     73 H73        32.3211  -44.7490  -52.9806 H         1 UNK         0.0680 
     74 H74        34.8187  -41.5230  -53.8676 H         1 UNK         0.0650 
     75 H75        33.4437  -41.3829  -52.7969 H         1 UNK         0.0650 
     76 H76        34.4175  -43.6086  -55.6975 H         1 UNK         0.1397 
     77 H77        30.6612  -43.0885  -57.6854 H         1 UNK         0.1363 
     78 H78        31.3874  -41.1144  -53.9559 H         1 UNK         0.1355 
     79 H79        29.3762  -40.5951  -55.2272 H         1 UNK         0.0707 
     80 H80        29.2973  -41.0702  -56.9056 H         1 UNK         0.0707 
     81 H81        26.0189  -42.3620  -56.2582 H         1 UNK         0.1034 
     82 H82        27.1478  -41.5839  -57.3043 H         1 UNK         0.1034 
     83 H83        26.0796  -43.4594  -58.4585 H         1 UNK         0.0482 
     84 H84        29.2740  -43.1010  -60.0501 H         1 UNK         0.3460 
     85 H85        27.9215  -42.1253  -59.5465 H         1 UNK         0.3460 
     86 H86        27.1679  -45.6404  -56.9500 H         1 UNK         0.2989 
     87 H87        25.3642  -46.6359  -55.1627 H         1 UNK         0.0559 
     88 H88        22.9279  -46.2929  -55.3658 H         1 UNK         0.0848 
     89 H89        23.3073  -47.9925  -55.5920 H         1 UNK         0.0848 
     90 H90        22.9209  -46.9793  -56.9828 H         1 UNK         0.0848 
     91 H91        26.4294  -48.0936  -56.4042 H         1 UNK         0.3144 
     92 H92        25.9201  -49.7524  -59.4054 H         1 UNK         0.0727 
     93 H93        28.2864  -49.1938  -59.9558 H         1 UNK         0.0790 
     94 H94        28.2231  -47.7929  -58.8871 H         1 UNK         0.0790 
     95 H95        27.2294  -47.8423  -60.3349 H         1 UNK         0.0790 
     96 H96        28.0485  -49.8436  -57.4835 H         1 UNK         0.3215 
     97 H97        26.3277  -51.9198  -55.1067 H         1 UNK         0.0863 
     98 H98        28.3967  -53.2387  -55.4296 H         1 UNK         0.0808 
     99 H99        28.7575  -52.3731  -56.9212 H         1 UNK         0.0808 
    100 H100       27.3490  -53.4212  -56.8272 H         1 UNK         0.0808 
    101 H101       28.9178  -50.7530  -55.0145 H         1 UNK         0.3118 
    102 H102       27.9446  -47.6588  -53.4497 H         1 UNK         0.0546 
    103 H103       29.5278  -50.1069  -52.5041 H         1 UNK         0.0828 
    104 H104       28.2001  -49.3439  -51.6419 H         1 UNK         0.0828 
    105 H105       29.7050  -48.4683  -51.8836 H         1 UNK         0.0828 
    106 H106       30.4963  -48.5872  -54.2829 H         1 UNK         0.3005 
    107 H107       30.3970  -47.3359  -57.6287 H         1 UNK         0.1257 
    108 H108       31.8859  -46.4475  -55.1018 H         1 UNK         0.0775 
    109 H109       30.9997  -45.4303  -56.1984 H         1 UNK         0.0775 
    110 H110       33.9297  -44.2014  -58.3085 H         1 UNK         0.0840 
    111 H111       32.2474  -44.5196  -58.6612 H         1 UNK         0.0840 
    112 H112       32.3242  -48.7950  -56.0729 H         1 UNK         0.2987 
    113 H113       31.3346  -52.0475  -57.1588 H         1 UNK         0.0785 
    114 H114       32.6985  -51.0932  -59.0220 H         1 UNK         0.0798 
    115 H115       33.6912  -52.0529  -57.9381 H         1 UNK         0.0798 
    116 H116       33.7509  -50.2911  -57.8647 H         1 UNK         0.0798 
    117 H117       33.4898  -51.1180  -55.5164 H         1 UNK         0.3079 
    118 H118       31.7270  -51.2678  -52.4082 H         1 UNK         0.0794 
    119 H119       33.5256  -52.8708  -51.8748 H         1 UNK         0.0786 
    120 H120       33.9165  -53.0620  -53.5844 H         1 UNK         0.0786 
    121 H121       32.3718  -53.6243  -52.9606 H         1 UNK         0.0786 
    122 H122       34.4163  -50.7104  -52.7471 H         1 UNK         0.3032 
    123 H123       35.0768  -48.6267  -52.1001 H         1 UNK         0.1094 
    124 H124       36.1802  -47.3291  -53.9264 H         1 UNK         0.0794 
    125 H125       35.6700  -48.8959  -54.5299 H         1 UNK         0.0794 
    126 H126       34.7334  -47.4615  -54.9241 H         1 UNK         0.0794 
    127 H127       34.2421  -46.0490  -52.9409 H         1 UNK         0.3016 
@<TRIPOS>BOND
     1    1    2 1    
     2    1   67 1    
     3    1   68 1    
     4    1   69 1    
     5    2    3 2    
     6    2    4 am   BACKBONE|DICT|INTERRES
     7    4    5 1    
     8    4   70 1    
     9    5    6 1    
    10    5   65 1    
    11    5   71 1    
    12    6    7 1    
    13    6   72 1    
    14    6   73 1    
    15    7    8 1    
    16    8    9 1    
    17    8   74 1    
    18    8   75 1    
    19    9   10 ar   
    20    9   14 ar   
    21   10   11 ar   
    22   10   76 1    
    23   11   12 ar   
    24   11   48 1    
    25   12   13 ar   
    26   12   77 1    
    27   13   14 ar   
    28   13   15 1    
    29   14   78 1    
    30   15   16 1    
    31   15   79 1    
    32   15   80 1    
    33   16   17 1    
    34   17   18 1    
    35   17   81 1    
    36   17   82 1    
    37   18   19 1    
    38   18   22 1    
    39   18   83 1    
    40   19   20 am   BACKBONE|DICT|INTERRES
    41   19   21 2    
    42   20   84 1    
    43   20   85 1    
    44   22   23 am   BACKBONE|DICT|INTERRES
    45   22   86 1    
    46   23   24 2    
    47   23   25 1    
    48   25   26 1    
    49   25   27 1    
    50   25   87 1    
    51   26   88 1    
    52   26   89 1    
    53   26   90 1    
    54   27   28 am   BACKBONE|DICT|INTERRES
    55   27   91 1    
    56   28   29 2    
    57   28   30 1    
    58   30   31 1    
    59   30   32 1    
    60   30   92 1    
    61   31   93 1    
    62   31   94 1    
    63   31   95 1    
    64   32   33 am   BACKBONE|DICT|INTERRES
    65   32   96 1    
    66   33   34 2    
    67   33   35 1    
    68   35   36 1    
    69   35   37 1    
    70   35   97 1    
    71   36   98 1    
    72   36   99 1    
    73   36  100 1    
    74   37   38 am   BACKBONE|DICT|INTERRES
    75   37  101 1    
    76   38   39 2    
    77   38   40 1    
    78   40   41 1    
    79   40   42 1    
    80   40  102 1    
    81   41  103 1    
    82   41  104 1    
    83   41  105 1    
    84   42   43 am   BACKBONE|DICT|INTERRES
    85   42  106 1    
    86   43   44 2    
    87   43   45 1    
    88   45   46 1    
    89   45   49 1    
    90   45  107 1    
    91   46   47 1    
    92   46  108 1    
    93   46  109 1    
    94   47   48 1    
    95   48  110 1    
    96   48  111 1    
    97   49   50 am   BACKBONE|DICT|INTERRES
    98   49  112 1    
    99   50   51 2    
   100   50   52 1    
   101   52   53 1    
   102   52   54 1    
   103   52  113 1    
   104   53  114 1    
   105   53  115 1    
   106   53  116 1    
   107   54   55 am   BACKBONE|DICT|INTERRES
   108   54  117 1    
   109   55   56 2    
   110   55   57 1    
   111   57   58 1    
   112   57   59 1    
   113   57  118 1    
   114   58  119 1    
   115   58  120 1    
   116   58  121 1    
   117   59   60 am   BACKBONE|DICT|INTERRES
   118   59  122 1    
   119   60   61 2    
   120   60   62 1    
   121   62   63 1    
   122   62   64 1    
   123   62  123 1    
   124   63  124 1    
   125   63  125 1    
   126   63  126 1    
   127   64   65 am   BACKBONE|DICT|INTERRES
   128   64  127 1    
   129   65   66 2    
@<TRIPOS>SUBSTRUCTURE
     1 UNK         1 GROUP             0       ****    0 ROOT    
