@<TRIPOS>MOLECULE
3R134
127   129    1
SMALL
USER_CHARGES


@<TRIPOS>ATOM
      1 CA         33.1287  -46.7853  -50.5604 C.3       0 UNK        -0.1968 
      2 C          34.0092  -47.0670  -51.7682 C.2       0 UNK         0.4852 
      3 O          34.8628  -47.9534  -51.7105 O.2       0 UNK        -0.5359 
      4 N          33.8137  -46.3129  -52.8571 N.am      1 UNK        -0.4300 
      5 CA         34.5445  -46.4643  -54.1204 C.3       1 UNK         0.0863 
      6 C6         34.3709  -45.2330  -55.0392 C.3       11 UNK        -0.0953 
      7 S7         35.0375  -43.7285  -54.2538 S.3       11 UNK        -0.2369 
      8 C8         34.1653  -42.4142  -55.1654 C.3       11 UNK         0.0226 
      9 C9         32.6532  -42.4084  -54.9575 C.ar      11 UNK        -0.0699 
     10 C10        32.0915  -42.5588  -53.6830 C.ar      11 UNK        -0.0804 
     11 C11        30.7046  -42.5165  -53.5060 C.ar      11 UNK        -0.0871 
     12 C12        29.8771  -42.3076  -54.6117 C.ar      11 UNK        -0.1008 
     13 C13        30.4262  -42.1364  -55.8848 C.ar      11 UNK        -0.0735 
     14 C14        31.8114  -42.1983  -56.0541 C.ar      11 UNK        -0.0945 
     15 C15        29.5201  -41.8371  -57.0651 C.3       11 UNK         0.0169 
     16 S16        29.0008  -43.3595  -57.9116 S.3       11 UNK        -0.2669 
     17 C17        27.3259  -42.8702  -58.4474 C.3       11 UNK        -0.0850 
     18 CA         26.2406  -43.4906  -57.5197 C.3       10 UNK         0.0855 
     19 C          24.8590  -42.7707  -57.6149 C.2       10 UNK         0.5543 
     20 N          23.7446  -43.4547  -57.3852 N.am      10 UNK        -0.7343 
     21 O          24.7920  -41.5690  -57.8625 O.2       10 UNK        -0.5027 
     22 N          26.1882  -44.9598  -57.6360 N.am      10 UNK        -0.4495 
     23 C          25.7868  -45.6424  -58.7185 C.2       10 UNK         0.4903 
     24 O          25.3822  -45.1172  -59.7575 O.2       10 UNK        -0.4860 
     25 CA         25.8461  -47.1736  -58.6060 C.3       9 UNK         0.0227 
     26 CB         25.4522  -47.9022  -59.9086 C.3       9 UNK        -0.1964 
     27 N          27.1429  -47.6413  -58.1131 N.am      9 UNK        -0.4231 
     28 C          28.3498  -47.5246  -58.6899 C.2       9 UNK         0.5014 
     29 O          28.5516  -46.9734  -59.7726 O.2       9 UNK        -0.5270 
     30 CA         29.5428  -48.1499  -57.9356 C.3       8 UNK         0.0284 
     31 CB         30.3968  -47.0524  -57.2786 C.3       8 UNK        -0.1977 
     32 N          29.1367  -49.1161  -56.9097 N.am      8 UNK        -0.4342 
     33 C          28.5529  -50.3008  -57.1437 C.2       8 UNK         0.5039 
     34 O          28.4235  -50.7947  -58.2639 O.2       8 UNK        -0.5547 
     35 CA         27.9494  -51.0185  -55.9254 C.3       7 UNK         0.0281 
     36 CB         29.0029  -51.8848  -55.2160 C.3       7 UNK        -0.1963 
     37 N          27.3545  -50.0669  -54.9784 N.am      7 UNK        -0.4444 
     38 C          26.1739  -49.4555  -55.1585 C.2       7 UNK         0.5104 
     39 O          25.4377  -49.6694  -56.1202 O.2       7 UNK        -0.5100 
     40 CA         25.7451  -48.4107  -54.1115 C.3       6 UNK         0.0396 
     41 CB         24.9167  -49.0766  -53.0018 C.3       6 UNK        -0.1801 
     42 N          26.8769  -47.7013  -53.5115 N.am      6 UNK        -0.4747 
     43 C          27.5943  -46.7421  -54.1176 C.2       6 UNK         0.5012 
     44 O          27.3259  -46.2942  -55.2339 O.2       6 UNK        -0.5003 
     45 CA         28.8499  -46.2419  -53.3632 C.3       5 UNK         0.0782 
     46 C46        28.5230  -44.9888  -52.5142 C.3       11 UNK        -0.0868 
     47 S47        29.9741  -44.3806  -51.5813 S.3       11 UNK        -0.2515 
     48 C48        30.1043  -42.6466  -52.1144 C.3       11 UNK         0.0199 
     49 N          29.4799  -47.2984  -52.5536 N.am      5 UNK        -0.4607 
     50 C          29.9865  -48.4317  -53.0477 C.2       4 UNK         0.5031 
     51 O          29.9190  -48.7427  -54.2386 O.2       4 UNK        -0.5119 
     52 CA         30.6058  -49.4153  -52.0529 C.3       4 UNK         0.0263 
     53 CB         29.5156  -50.3025  -51.4216 C.3       4 UNK        -0.1967 
     54 N          31.5586  -50.2238  -52.8015 N.am      4 UNK        -0.4237 
     55 C          32.4948  -51.0415  -52.3064 C.2       3 UNK         0.4908 
     56 O          32.6634  -51.2510  -51.1050 O.2       3 UNK        -0.5102 
     57 CA         33.4098  -51.7271  -53.3301 C.3       3 UNK         0.0241 
     58 CB         32.7440  -52.9954  -53.8990 C.3       3 UNK        -0.1971 
     59 N          33.7562  -50.7872  -54.3948 N.am      3 UNK        -0.4139 
     60 C          34.7314  -50.9082  -55.2982 C.2       2 UNK         0.5016 
     61 O          35.4582  -51.8970  -55.4012 O.2       2 UNK        -0.5319 
     62 CA         34.9553  -49.7014  -56.2317 C.3       2 UNK         0.0286 
     63 CB         33.8947  -49.6579  -57.3518 C.3       2 UNK        -0.1963 
     64 N          35.0603  -48.4096  -55.5276 N.am      2 UNK        -0.4790 
     65 C          34.1119  -47.7540  -54.8415 C.2       1 UNK         0.5024 
     66 O          32.9452  -48.1401  -54.7505 O.2       1 UNK        -0.4888 
     67 H67        33.6510  -46.1342  -49.8602 H         1 UNK         0.0892 
     68 H68        32.1954  -46.3026  -50.8474 H         1 UNK         0.0892 
     69 H69        32.8855  -47.7130  -50.0432 H         1 UNK         0.0892 
     70 H70        33.0904  -45.6088  -52.8572 H         1 UNK         0.3107 
     71 H71        35.6053  -46.5592  -53.8768 H         1 UNK         0.0773 
     72 H72        33.3175  -45.0866  -55.2861 H         1 UNK         0.0680 
     73 H73        34.8948  -45.3757  -55.9863 H         1 UNK         0.0680 
     74 H74        34.4093  -42.5130  -56.2244 H         1 UNK         0.0650 
     75 H75        34.5612  -41.4495  -54.8461 H         1 UNK         0.0650 
     76 H76        32.7343  -42.7004  -52.8250 H         1 UNK         0.1397 
     77 H77        28.8049  -42.2545  -54.4812 H         1 UNK         0.1363 
     78 H78        32.2332  -42.0611  -57.0405 H         1 UNK         0.1355 
     79 H79        30.0242  -41.1834  -57.7786 H         1 UNK         0.0707 
     80 H80        28.6486  -41.2850  -56.7096 H         1 UNK         0.0707 
     81 H81        27.2635  -41.7811  -58.4678 H         1 UNK         0.1034 
     82 H82        27.1807  -43.1837  -59.4818 H         1 UNK         0.1034 
     83 H83        26.5523  -43.3012  -56.4916 H         1 UNK         0.0482 
     84 H84        23.7861  -44.4373  -57.1685 H         1 UNK         0.3460 
     85 H85        22.8551  -42.9836  -57.4361 H         1 UNK         0.3460 
     86 H86        26.5299  -45.4739  -56.8284 H         1 UNK         0.2989 
     87 H87        25.1153  -47.4505  -57.8450 H         1 UNK         0.0559 
     88 H88        26.1138  -47.6436  -60.7360 H         1 UNK         0.0848 
     89 H89        24.4377  -47.6394  -60.2107 H         1 UNK         0.0848 
     90 H90        25.4821  -48.9843  -59.7806 H         1 UNK         0.0848 
     91 H91        27.1176  -48.0943  -57.2109 H         1 UNK         0.3144 
     92 H92        30.1586  -48.6756  -58.6680 H         1 UNK         0.0727 
     93 H93        30.7682  -46.3477  -58.0238 H         1 UNK         0.0790 
     94 H94        31.2631  -47.4725  -56.7681 H         1 UNK         0.0790 
     95 H95        29.8235  -46.4784  -56.5502 H         1 UNK         0.0790 
     96 H96        29.2974  -48.8456  -55.9401 H         1 UNK         0.3215 
     97 H97        27.1600  -51.6811  -56.2880 H         1 UNK         0.0863 
     98 H98        29.8454  -51.2939  -54.8607 H         1 UNK         0.0808 
     99 H99        29.4025  -52.6395  -55.8946 H         1 UNK         0.0808 
    100 H100       28.5765  -52.4115  -54.3622 H         1 UNK         0.0808 
    101 H101       27.9348  -49.7774  -54.2043 H         1 UNK         0.3118 
    102 H102       25.1094  -47.6789  -54.6150 H         1 UNK         0.0546 
    103 H103       25.4979  -49.8147  -52.4475 H         1 UNK         0.0828 
    104 H104       24.0499  -49.5916  -53.4187 H         1 UNK         0.0828 
    105 H105       24.5415  -48.3406  -52.2906 H         1 UNK         0.0828 
    106 H106       27.1617  -47.9935  -52.5877 H         1 UNK         0.3005 
    107 H107       29.5747  -45.9485  -54.1265 H         1 UNK         0.1257 
    108 H108       27.7338  -45.2092  -51.7929 H         1 UNK         0.0775 
    109 H109       28.1353  -44.1921  -53.1508 H         1 UNK         0.0775 
    110 H110       29.1228  -42.1720  -52.0660 H         1 UNK         0.0840 
    111 H111       30.7308  -42.1096  -51.4005 H         1 UNK         0.0840 
    112 H112       29.5589  -47.1057  -51.5654 H         1 UNK         0.2987 
    113 H113       31.1359  -48.8606  -51.2779 H         1 UNK         0.0785 
    114 H114       28.7742  -49.7014  -50.8940 H         1 UNK         0.0798 
    115 H115       29.9376  -50.9964  -50.6947 H         1 UNK         0.0798 
    116 H116       28.9879  -50.8910  -52.1730 H         1 UNK         0.0798 
    117 H117       31.4842  -50.0780  -53.8017 H         1 UNK         0.3079 
    118 H118       34.3292  -52.0108  -52.8137 H         1 UNK         0.0794 
    119 H119       32.4296  -53.6645  -53.0969 H         1 UNK         0.0786 
    120 H120       33.4298  -53.5565  -54.5337 H         1 UNK         0.0786 
    121 H121       31.8611  -52.7571  -54.4921 H         1 UNK         0.0786 
    122 H122       33.2841  -49.8850  -54.3747 H         1 UNK         0.3032 
    123 H123       35.9241  -49.8575  -56.7101 H         1 UNK         0.1094 
    124 H124       33.9140  -50.5778  -57.9376 H         1 UNK         0.0794 
    125 H125       32.8822  -49.5487  -56.9619 H         1 UNK         0.0794 
    126 H126       34.0782  -48.8325  -58.0395 H         1 UNK         0.0794 
    127 H127       35.9919  -48.0156  -55.5187 H         1 UNK         0.3016 
@<TRIPOS>BOND
     1    1    2 1    
     2    1   67 1    
     3    1   68 1    
     4    1   69 1    
     5    2    3 2    
     6    2    4 am   BACKBONE|DICT|INTERRES
     7    4    5 1    
     8    4   70 1    
     9    5    6 1    
    10    5   65 1    
    11    5   71 1    
    12    6    7 1    
    13    6   72 1    
    14    6   73 1    
    15    7    8 1    
    16    8    9 1    
    17    8   74 1    
    18    8   75 1    
    19    9   10 ar   
    20    9   14 ar   
    21   10   11 ar   
    22   10   76 1    
    23   11   12 ar   
    24   11   48 1    
    25   12   13 ar   
    26   12   77 1    
    27   13   14 ar   
    28   13   15 1    
    29   14   78 1    
    30   15   16 1    
    31   15   79 1    
    32   15   80 1    
    33   16   17 1    
    34   17   18 1    
    35   17   81 1    
    36   17   82 1    
    37   18   19 1    
    38   18   22 1    
    39   18   83 1    
    40   19   20 am   BACKBONE|DICT|INTERRES
    41   19   21 2    
    42   20   84 1    
    43   20   85 1    
    44   22   23 am   BACKBONE|DICT|INTERRES
    45   22   86 1    
    46   23   24 2    
    47   23   25 1    
    48   25   26 1    
    49   25   27 1    
    50   25   87 1    
    51   26   88 1    
    52   26   89 1    
    53   26   90 1    
    54   27   28 am   BACKBONE|DICT|INTERRES
    55   27   91 1    
    56   28   29 2    
    57   28   30 1    
    58   30   31 1    
    59   30   32 1    
    60   30   92 1    
    61   31   93 1    
    62   31   94 1    
    63   31   95 1    
    64   32   33 am   BACKBONE|DICT|INTERRES
    65   32   96 1    
    66   33   34 2    
    67   33   35 1    
    68   35   36 1    
    69   35   37 1    
    70   35   97 1    
    71   36   98 1    
    72   36   99 1    
    73   36  100 1    
    74   37   38 am   BACKBONE|DICT|INTERRES
    75   37  101 1    
    76   38   39 2    
    77   38   40 1    
    78   40   41 1    
    79   40   42 1    
    80   40  102 1    
    81   41  103 1    
    82   41  104 1    
    83   41  105 1    
    84   42   43 am   BACKBONE|DICT|INTERRES
    85   42  106 1    
    86   43   44 2    
    87   43   45 1    
    88   45   46 1    
    89   45   49 1    
    90   45  107 1    
    91   46   47 1    
    92   46  108 1    
    93   46  109 1    
    94   47   48 1    
    95   48  110 1    
    96   48  111 1    
    97   49   50 am   BACKBONE|DICT|INTERRES
    98   49  112 1    
    99   50   51 2    
   100   50   52 1    
   101   52   53 1    
   102   52   54 1    
   103   52  113 1    
   104   53  114 1    
   105   53  115 1    
   106   53  116 1    
   107   54   55 am   BACKBONE|DICT|INTERRES
   108   54  117 1    
   109   55   56 2    
   110   55   57 1    
   111   57   58 1    
   112   57   59 1    
   113   57  118 1    
   114   58  119 1    
   115   58  120 1    
   116   58  121 1    
   117   59   60 am   BACKBONE|DICT|INTERRES
   118   59  122 1    
   119   60   61 2    
   120   60   62 1    
   121   62   63 1    
   122   62   64 1    
   123   62  123 1    
   124   63  124 1    
   125   63  125 1    
   126   63  126 1    
   127   64   65 am   BACKBONE|DICT|INTERRES
   128   64  127 1    
   129   65   66 2    
@<TRIPOS>SUBSTRUCTURE
     1 UNK         1 GROUP             0       ****    0 ROOT    
