@<TRIPOS>MOLECULE
3R134
127   129    1
SMALL
USER_CHARGES


@<TRIPOS>ATOM
      1 CA         35.9143  -43.2207  -50.2232 C.3       0 UNK        -0.1968 
      2 C          36.5944  -44.0868  -51.2738 C.2       0 UNK         0.4852 
      3 O          37.8012  -44.3207  -51.1859 O.2       0 UNK        -0.5359 
      4 N          35.8305  -44.5558  -52.2677 N.am      1 UNK        -0.4300 
      5 CA         36.2851  -45.4711  -53.3175 C.3       1 UNK         0.0863 
      6 C6         35.4518  -45.3089  -54.6176 C.3       11 UNK        -0.0953 
      7 S7         33.6621  -45.6263  -54.4303 S.3       11 UNK        -0.2369 
      8 C8         33.0001  -43.9326  -54.4443 C.3       11 UNK         0.0226 
      9 C9         31.4840  -43.9372  -54.3328 C.ar      11 UNK        -0.0699 
     10 C10        30.8678  -44.0127  -53.0802 C.ar      11 UNK        -0.0804 
     11 C11        29.4732  -44.0185  -52.9739 C.ar      11 UNK        -0.0871 
     12 C12        28.6938  -43.9467  -54.1330 C.ar      11 UNK        -0.1008 
     13 C13        29.3007  -43.8717  -55.3902 C.ar      11 UNK        -0.0735 
     14 C14        30.6953  -43.8644  -55.4839 C.ar      11 UNK        -0.0945 
     15 C15        28.4539  -43.8327  -56.6509 C.3       11 UNK         0.0169 
     16 S16        27.7394  -42.1876  -56.9389 S.3       11 UNK        -0.2669 
     17 C17        27.4079  -42.2477  -58.7348 C.3       11 UNK        -0.0850 
     18 CA         26.0577  -42.9266  -59.0870 C.3       10 UNK         0.0855 
     19 C          25.6216  -42.5966  -60.5449 C.2       10 UNK         0.5543 
     20 N          25.4505  -43.5722  -61.4295 N.am      10 UNK        -0.7343 
     21 O          25.4226  -41.4305  -60.8763 O.2       10 UNK        -0.5027 
     22 N          26.0903  -44.3702  -58.7988 N.am      10 UNK        -0.4495 
     23 C          25.0470  -45.0981  -58.3922 C.2       10 UNK         0.4903 
     24 O          23.9376  -44.6203  -58.1523 O.2       10 UNK        -0.4860 
     25 CA         25.2474  -46.6158  -58.2177 C.3       9 UNK         0.0227 
     26 CB         24.7068  -47.3816  -59.4405 C.3       9 UNK        -0.1964 
     27 N          26.6037  -47.0739  -57.8775 N.am      9 UNK        -0.4231 
     28 C          27.7305  -47.0400  -58.6056 C.2       9 UNK         0.5014 
     29 O          27.8451  -46.4190  -59.6628 O.2       9 UNK        -0.5270 
     30 CA         28.9293  -47.8522  -58.0762 C.3       8 UNK         0.0284 
     31 CB         29.8173  -47.0129  -57.1466 C.3       8 UNK        -0.1977 
     32 N          28.5257  -49.0716  -57.3741 N.am      8 UNK        -0.4342 
     33 C          27.9539  -50.1376  -57.9521 C.2       8 UNK         0.5039 
     34 O          27.7545  -50.2427  -59.1628 O.2       8 UNK        -0.5547 
     35 CA         27.5133  -51.2699  -57.0134 C.3       7 UNK         0.0281 
     36 CB         28.7058  -52.1631  -56.6313 C.3       7 UNK        -0.1963 
     37 N          26.8779  -50.7390  -55.8054 N.am      7 UNK        -0.4444 
     38 C          25.6052  -50.3217  -55.7452 C.2       7 UNK         0.5104 
     39 O          24.8123  -50.4028  -56.6833 O.2       7 UNK        -0.5100 
     40 CA         25.1293  -49.7067  -54.4159 C.3       6 UNK         0.0396 
     41 CB         24.4778  -50.7822  -53.5324 C.3       6 UNK        -0.1801 
     42 N          26.1971  -49.0439  -53.6622 N.am      6 UNK        -0.4747 
     43 C          26.7933  -47.9005  -54.0316 C.2       6 UNK         0.5012 
     44 O          26.4947  -47.2713  -55.0454 O.2       6 UNK        -0.5003 
     45 CA         27.9558  -47.4076  -53.1473 C.3       5 UNK         0.0782 
     46 C46        27.4169  -46.5236  -51.9969 C.3       11 UNK        -0.0868 
     47 S47        28.7473  -45.8020  -50.9780 S.3       11 UNK        -0.2515 
     48 C48        28.8158  -44.0930  -51.6037 C.3       11 UNK         0.0199 
     49 N          28.8063  -48.5050  -52.6642 N.am      5 UNK        -0.4607 
     50 C          29.4711  -49.3528  -53.4575 C.2       4 UNK         0.5031 
     51 O          29.3672  -49.3633  -54.6866 O.2       4 UNK        -0.5119 
     52 CA         30.3569  -50.4024  -52.7724 C.3       4 UNK         0.0263 
     53 CB         29.5883  -51.7233  -52.6057 C.3       4 UNK        -0.1967 
     54 N          31.5550  -50.6360  -53.5789 N.am      4 UNK        -0.4237 
     55 C          32.5851  -49.7836  -53.6386 C.2       3 UNK         0.4908 
     56 O          32.7093  -48.8068  -52.8968 O.2       3 UNK        -0.5102 
     57 CA         33.6113  -50.0426  -54.7531 C.3       3 UNK         0.0241 
     58 CB         33.1244  -49.4226  -56.0746 C.3       3 UNK        -0.1971 
     59 N          34.9192  -49.4788  -54.4198 N.am      3 UNK        -0.4139 
     60 C          35.7932  -50.0273  -53.5656 C.2       2 UNK         0.5016 
     61 O          35.6223  -51.1184  -53.0191 O.2       2 UNK        -0.5319 
     62 CA         37.0891  -49.2423  -53.2829 C.3       2 UNK         0.0286 
     63 CB         38.2596  -49.8321  -54.0873 C.3       2 UNK        -0.1963 
     64 N          36.9844  -47.8073  -53.5738 N.am      2 UNK        -0.4790 
     65 C          36.3190  -46.9301  -52.8091 C.2       1 UNK         0.5024 
     66 O          35.7500  -47.2415  -51.7594 O.2       1 UNK        -0.4888 
     67 H67        36.0058  -43.6827  -49.2406 H         1 UNK         0.0892 
     68 H68        36.3852  -42.2388  -50.1839 H         1 UNK         0.0892 
     69 H69        34.8543  -43.0797  -50.4340 H         1 UNK         0.0892 
     70 H70        34.8363  -44.3838  -52.2546 H         1 UNK         0.3107 
     71 H71        37.3156  -45.2067  -53.5658 H         1 UNK         0.0773 
     72 H72        35.8288  -45.9717  -55.3982 H         1 UNK         0.0680 
     73 H73        35.5946  -44.3016  -55.0118 H         1 UNK         0.0680 
     74 H74        33.3080  -43.4320  -55.3637 H         1 UNK         0.0650 
     75 H75        33.4312  -43.3609  -53.6217 H         1 UNK         0.0650 
     76 H76        31.4742  -44.0750  -52.1869 H         1 UNK         0.1397 
     77 H77        27.6146  -43.9527  -54.0619 H         1 UNK         0.1363 
     78 H78        31.1692  -43.8118  -56.4546 H         1 UNK         0.1355 
     79 H79        29.0513  -44.1222  -57.5155 H         1 UNK         0.0707 
     80 H80        27.6514  -44.5659  -56.5647 H         1 UNK         0.0707 
     81 H81        27.4137  -41.2117  -59.0796 H         1 UNK         0.1034 
     82 H82        28.2356  -42.7330  -59.2549 H         1 UNK         0.1034 
     83 H83        25.2959  -42.4691  -58.4528 H         1 UNK         0.0482 
     84 H84        25.6160  -44.5309  -61.1685 H         1 UNK         0.3460 
     85 H85        25.1626  -43.3447  -62.3683 H         1 UNK         0.3460 
     86 H86        26.9317  -44.8738  -59.0637 H         1 UNK         0.2989 
     87 H87        24.6345  -46.9014  -57.3612 H         1 UNK         0.0559 
     88 H88        25.2780  -47.1639  -60.3433 H         1 UNK         0.0848 
     89 H89        23.6679  -47.1163  -59.6411 H         1 UNK         0.0848 
     90 H90        24.7394  -48.4590  -59.2756 H         1 UNK         0.0848 
     91 H91        26.6708  -47.4822  -56.9487 H         1 UNK         0.3144 
     92 H92        29.5295  -48.1499  -58.9386 H         1 UNK         0.0727 
     93 H93        29.2693  -46.6657  -56.2704 H         1 UNK         0.0790 
     94 H94        30.2123  -46.1408  -57.6672 H         1 UNK         0.0790 
     95 H95        30.6734  -47.5865  -56.7916 H         1 UNK         0.0790 
     96 H96        28.7205  -49.1102  -56.3744 H         1 UNK         0.3215 
     97 H97        26.7893  -51.8881  -57.5494 H         1 UNK         0.0863 
     98 H98        28.3954  -52.9839  -55.9847 H         1 UNK         0.0808 
     99 H99        29.4881  -51.6056  -56.1162 H         1 UNK         0.0808 
    100 H100       29.1571  -52.6053  -57.5204 H         1 UNK         0.0808 
    101 H101       27.4773  -50.5764  -55.0084 H         1 UNK         0.3118 
    102 H102       24.3704  -48.9581  -54.6542 H         1 UNK         0.0546 
    103 H103       25.1904  -51.5554  -53.2426 H         1 UNK         0.0828 
    104 H104       23.6592  -51.2754  -54.0587 H         1 UNK         0.0828 
    105 H105       24.0604  -50.3503  -52.6227 H         1 UNK         0.0828 
    106 H106       26.5109  -49.4966  -52.8154 H         1 UNK         0.3005 
    107 H107       28.5861  -46.7847  -53.7859 H         1 UNK         0.1257 
    108 H108       26.7729  -47.1083  -51.3371 H         1 UNK         0.0775 
    109 H109       26.7909  -45.7195  -52.3886 H         1 UNK         0.0775 
    110 H110       27.8126  -43.6646  -51.6286 H         1 UNK         0.0840 
    111 H111       29.3828  -43.4850  -50.8970 H         1 UNK         0.0840 
    112 H112       28.9438  -48.5500  -51.6647 H         1 UNK         0.2987 
    113 H113       30.6537  -50.0385  -51.7861 H         1 UNK         0.0785 
    114 H114       28.6991  -51.5836  -51.9895 H         1 UNK         0.0798 
    115 H115       30.2030  -52.4790  -52.1164 H         1 UNK         0.0798 
    116 H116       29.2605  -52.1283  -53.5637 H         1 UNK         0.0798 
    117 H117       31.5050  -51.3872  -54.2513 H         1 UNK         0.3079 
    118 H118       33.7188  -51.1211  -54.8890 H         1 UNK         0.0794 
    119 H119       32.1548  -49.8289  -56.3673 H         1 UNK         0.0786 
    120 H120       33.8194  -49.6258  -56.8895 H         1 UNK         0.0786 
    121 H121       33.0095  -48.3408  -55.9926 H         1 UNK         0.0786 
    122 H122       35.1170  -48.5547  -54.7725 H         1 UNK         0.3032 
    123 H123       37.3113  -49.3635  -52.2199 H         1 UNK         0.1094 
    124 H124       39.2004  -49.3402  -53.8391 H         1 UNK         0.0794 
    125 H125       38.3857  -50.8941  -53.8710 H         1 UNK         0.0794 
    126 H126       38.1016  -49.7358  -55.1622 H         1 UNK         0.0794 
    127 H127       37.4416  -47.4804  -54.4137 H         1 UNK         0.3016 
@<TRIPOS>BOND
     1    1    2 1    
     2    1   67 1    
     3    1   68 1    
     4    1   69 1    
     5    2    3 2    
     6    2    4 am   BACKBONE|DICT|INTERRES
     7    4    5 1    
     8    4   70 1    
     9    5    6 1    
    10    5   65 1    
    11    5   71 1    
    12    6    7 1    
    13    6   72 1    
    14    6   73 1    
    15    7    8 1    
    16    8    9 1    
    17    8   74 1    
    18    8   75 1    
    19    9   10 ar   
    20    9   14 ar   
    21   10   11 ar   
    22   10   76 1    
    23   11   12 ar   
    24   11   48 1    
    25   12   13 ar   
    26   12   77 1    
    27   13   14 ar   
    28   13   15 1    
    29   14   78 1    
    30   15   16 1    
    31   15   79 1    
    32   15   80 1    
    33   16   17 1    
    34   17   18 1    
    35   17   81 1    
    36   17   82 1    
    37   18   19 1    
    38   18   22 1    
    39   18   83 1    
    40   19   20 am   BACKBONE|DICT|INTERRES
    41   19   21 2    
    42   20   84 1    
    43   20   85 1    
    44   22   23 am   BACKBONE|DICT|INTERRES
    45   22   86 1    
    46   23   24 2    
    47   23   25 1    
    48   25   26 1    
    49   25   27 1    
    50   25   87 1    
    51   26   88 1    
    52   26   89 1    
    53   26   90 1    
    54   27   28 am   BACKBONE|DICT|INTERRES
    55   27   91 1    
    56   28   29 2    
    57   28   30 1    
    58   30   31 1    
    59   30   32 1    
    60   30   92 1    
    61   31   93 1    
    62   31   94 1    
    63   31   95 1    
    64   32   33 am   BACKBONE|DICT|INTERRES
    65   32   96 1    
    66   33   34 2    
    67   33   35 1    
    68   35   36 1    
    69   35   37 1    
    70   35   97 1    
    71   36   98 1    
    72   36   99 1    
    73   36  100 1    
    74   37   38 am   BACKBONE|DICT|INTERRES
    75   37  101 1    
    76   38   39 2    
    77   38   40 1    
    78   40   41 1    
    79   40   42 1    
    80   40  102 1    
    81   41  103 1    
    82   41  104 1    
    83   41  105 1    
    84   42   43 am   BACKBONE|DICT|INTERRES
    85   42  106 1    
    86   43   44 2    
    87   43   45 1    
    88   45   46 1    
    89   45   49 1    
    90   45  107 1    
    91   46   47 1    
    92   46  108 1    
    93   46  109 1    
    94   47   48 1    
    95   48  110 1    
    96   48  111 1    
    97   49   50 am   BACKBONE|DICT|INTERRES
    98   49  112 1    
    99   50   51 2    
   100   50   52 1    
   101   52   53 1    
   102   52   54 1    
   103   52  113 1    
   104   53  114 1    
   105   53  115 1    
   106   53  116 1    
   107   54   55 am   BACKBONE|DICT|INTERRES
   108   54  117 1    
   109   55   56 2    
   110   55   57 1    
   111   57   58 1    
   112   57   59 1    
   113   57  118 1    
   114   58  119 1    
   115   58  120 1    
   116   58  121 1    
   117   59   60 am   BACKBONE|DICT|INTERRES
   118   59  122 1    
   119   60   61 2    
   120   60   62 1    
   121   62   63 1    
   122   62   64 1    
   123   62  123 1    
   124   63  124 1    
   125   63  125 1    
   126   63  126 1    
   127   64   65 am   BACKBONE|DICT|INTERRES
   128   64  127 1    
   129   65   66 2    
@<TRIPOS>SUBSTRUCTURE
     1 UNK         1 GROUP             0       ****    0 ROOT    
