@<TRIPOS>MOLECULE
3R134
127   129    1
SMALL
USER_CHARGES


@<TRIPOS>ATOM
      1 CA         31.5539  -42.8714  -50.8645 C.3       0 UNK        -0.1968 
      2 C          33.0558  -43.0053  -51.0704 C.2       0 UNK         0.4852 
      3 O          33.7392  -42.0000  -51.2698 O.2       0 UNK        -0.5359 
      4 N          33.5692  -44.2374  -51.0278 N.am      1 UNK        -0.4300 
      5 CA         34.9740  -44.5940  -51.2149 C.3       1 UNK         0.0863 
      6 C6         35.4490  -44.4695  -52.6920 C.3       11 UNK        -0.0953 
      7 S7         34.4828  -45.4745  -53.8725 S.3       11 UNK        -0.2369 
      8 C8         33.5304  -44.1909  -54.7362 C.3       11 UNK         0.0226 
      9 C9         32.3071  -44.7701  -55.4305 C.ar      11 UNK        -0.0699 
     10 C10        32.4402  -45.4614  -56.6389 C.ar      11 UNK        -0.0804 
     11 C11        31.3115  -45.9486  -57.3060 C.ar      11 UNK        -0.0871 
     12 C12        30.0442  -45.7330  -56.7586 C.ar      11 UNK        -0.1008 
     13 C13        29.8996  -45.0591  -55.5425 C.ar      11 UNK        -0.0735 
     14 C14        31.0350  -44.5841  -54.8801 C.ar      11 UNK        -0.0945 
     15 C15        28.5119  -44.8033  -54.9754 C.3       11 UNK         0.0169 
     16 S16        27.6066  -46.3535  -54.6810 S.3       11 UNK        -0.2669 
     17 C17        25.8853  -45.7513  -54.6212 C.3       11 UNK        -0.0850 
     18 CA         25.1229  -46.0686  -55.9388 C.3       10 UNK         0.0855 
     19 C          23.5758  -45.9039  -55.8224 C.2       10 UNK         0.5543 
     20 N          22.8624  -45.5865  -56.8977 N.am      10 UNK        -0.7343 
     21 O          23.0047  -46.1012  -54.7529 O.2       10 UNK        -0.5027 
     22 N          25.7184  -45.4222  -57.1208 N.am      10 UNK        -0.4495 
     23 C          25.7051  -44.1113  -57.4056 C.2       10 UNK         0.4903 
     24 O          25.2964  -43.2423  -56.6353 O.2       10 UNK        -0.4860 
     25 CA         26.2089  -43.6923  -58.8017 C.3       9 UNK         0.0227 
     26 CB         27.6590  -43.1884  -58.7192 C.3       9 UNK        -0.1964 
     27 N          26.1244  -44.7596  -59.8050 N.am      9 UNK        -0.4231 
     28 C          24.9992  -45.3778  -60.1928 C.2       9 UNK         0.5014 
     29 O          23.8714  -45.0544  -59.8151 O.2       9 UNK        -0.5270 
     30 CA         25.1587  -46.6232  -61.0843 C.3       8 UNK         0.0284 
     31 CB         26.4634  -46.6395  -61.9145 C.3       8 UNK        -0.1977 
     32 N          25.0259  -47.8537  -60.2912 N.am      8 UNK        -0.4342 
     33 C          25.7731  -48.2126  -59.2373 C.2       8 UNK         0.5039 
     34 O          26.7291  -47.5554  -58.8079 O.2       8 UNK        -0.5547 
     35 CA         25.3847  -49.5146  -58.5278 C.3       7 UNK         0.0281 
     36 CB         25.7842  -50.7467  -59.3607 C.3       7 UNK        -0.1963 
     37 N          26.0887  -49.5286  -57.2531 N.am      7 UNK        -0.4444 
     38 C          25.7930  -50.2401  -56.1623 C.2       7 UNK         0.5104 
     39 O          24.8318  -51.0069  -56.0861 O.2       7 UNK        -0.5100 
     40 CA         26.7351  -50.0456  -54.9533 C.3       6 UNK         0.0396 
     41 CB         26.7344  -51.2537  -53.9937 C.3       6 UNK        -0.1801 
     42 N          28.1082  -49.6806  -55.3389 N.am      6 UNK        -0.4747 
     43 C          28.9566  -50.4058  -56.0880 C.2       6 UNK         0.5012 
     44 O          28.7039  -51.5310  -56.5201 O.2       6 UNK        -0.5003 
     45 CA         30.3092  -49.7582  -56.4451 C.3       5 UNK         0.0782 
     46 C46        30.2318  -49.1133  -57.8516 C.3       11 UNK        -0.0868 
     47 S47        31.8364  -48.4439  -58.4086 S.3       11 UNK        -0.2515 
     48 C48        31.4594  -46.6765  -58.6340 C.3       11 UNK         0.0199 
     49 N          30.7961  -48.8216  -55.4243 N.am      5 UNK        -0.4607 
     50 C          31.2088  -49.1842  -54.2038 C.2       4 UNK         0.5031 
     51 O          31.1149  -50.3302  -53.7573 O.2       4 UNK        -0.5119 
     52 CA         31.8239  -48.0739  -53.3366 C.3       4 UNK         0.0263 
     53 CB         30.7437  -47.3531  -52.5163 C.3       4 UNK        -0.1967 
     54 N          32.8440  -48.5872  -52.4202 N.am      4 UNK        -0.4237 
     55 C          34.0203  -49.1099  -52.7881 C.2       3 UNK         0.4908 
     56 O          34.4076  -49.2033  -53.9560 O.2       3 UNK        -0.5102 
     57 CA         34.9053  -49.6419  -51.6530 C.3       3 UNK         0.0241 
     58 CB         34.6832  -51.1525  -51.4709 C.3       3 UNK        -0.1971 
     59 N          36.3088  -49.4094  -51.9983 N.am      3 UNK        -0.4139 
     60 C          37.2039  -48.5838  -51.4379 C.2       2 UNK         0.5016 
     61 O          38.3121  -48.4214  -51.9494 O.2       2 UNK        -0.5319 
     62 CA         36.8677  -47.7776  -50.1658 C.3       2 UNK         0.0286 
     63 CB         38.0932  -47.6501  -49.2403 C.3       2 UNK        -0.1963 
     64 N          36.4547  -46.4360  -50.5734 N.am      2 UNK        -0.4790 
     65 C          35.1907  -46.0020  -50.6285 C.2       1 UNK         0.5024 
     66 O          34.2206  -46.6635  -50.2455 O.2       1 UNK        -0.4888 
     67 H67        31.0701  -43.8413  -50.7491 H         1 UNK         0.0892 
     68 H68        31.3485  -42.2806  -49.9723 H         1 UNK         0.0892 
     69 H69        31.1020  -42.3681  -51.7187 H         1 UNK         0.0892 
     70 H70        32.9898  -45.0382  -50.8060 H         1 UNK         0.3107 
     71 H71        35.5703  -43.9132  -50.6037 H         1 UNK         0.0773 
     72 H72        35.4173  -43.4236  -52.9998 H         1 UNK         0.0680 
     73 H73        36.4973  -44.7569  -52.7852 H         1 UNK         0.0680 
     74 H74        33.2255  -43.4209  -54.0268 H         1 UNK         0.0650 
     75 H75        34.1736  -43.6978  -55.4663 H         1 UNK         0.0650 
     76 H76        33.4236  -45.6118  -57.0637 H         1 UNK         0.1397 
     77 H77        29.1627  -46.0856  -57.2776 H         1 UNK         0.1363 
     78 H78        30.9280  -44.0494  -53.9465 H         1 UNK         0.1355 
     79 H79        27.9656  -44.1764  -55.6785 H         1 UNK         0.0707 
     80 H80        28.5651  -44.2445  -54.0398 H         1 UNK         0.0707 
     81 H81        25.8583  -44.6835  -54.3991 H         1 UNK         0.1034 
     82 H82        25.4082  -46.2447  -53.7727 H         1 UNK         0.1034 
     83 H83        25.2452  -47.1359  -56.1171 H         1 UNK         0.0482 
     84 H84        23.3095  -45.4168  -57.7905 H         1 UNK         0.3460 
     85 H85        21.8627  -45.4940  -56.8133 H         1 UNK         0.3460 
     86 H86        26.1057  -46.0604  -57.8112 H         1 UNK         0.2989 
     87 H87        25.5774  -42.8693  -59.1422 H         1 UNK         0.0559 
     88 H88        27.9977  -42.7920  -59.6765 H         1 UNK         0.0848 
     89 H89        28.3464  -43.9804  -58.4212 H         1 UNK         0.0848 
     90 H90        27.7529  -42.3850  -57.9870 H         1 UNK         0.0848 
     91 H91        26.9993  -45.1465  -60.1286 H         1 UNK         0.3144 
     92 H92        24.3230  -46.6074  -61.7859 H         1 UNK         0.0727 
     93 H93        26.4614  -47.4698  -62.6207 H         1 UNK         0.0790 
     94 H94        27.3562  -46.7428  -61.2970 H         1 UNK         0.0790 
     95 H95        26.5682  -45.7246  -62.4995 H         1 UNK         0.0790 
     96 H96        24.2461  -48.4456  -60.5441 H         1 UNK         0.3215 
     97 H97        24.3078  -49.5118  -58.3463 H         1 UNK         0.0863 
     98 H98        25.5219  -51.6735  -58.8501 H         1 UNK         0.0808 
     99 H99        26.8573  -50.7672  -59.5558 H         1 UNK         0.0808 
    100 H100       25.2750  -50.7558  -60.3250 H         1 UNK         0.0808 
    101 H101       26.8625  -48.8748  -57.2235 H         1 UNK         0.3118 
    102 H102       26.3399  -49.1916  -54.4017 H         1 UNK         0.0546 
    103 H103       27.0453  -52.1705  -54.4952 H         1 UNK         0.0828 
    104 H104       25.7379  -51.4294  -53.5869 H         1 UNK         0.0828 
    105 H105       27.4036  -51.0895  -53.1493 H         1 UNK         0.0828 
    106 H106       28.4126  -48.7617  -55.0430 H         1 UNK         0.3005 
    107 H107       31.0330  -50.5754  -56.4956 H         1 UNK         0.1257 
    108 H108       29.9204  -49.8550  -58.5900 H         1 UNK         0.0775 
    109 H109       29.4693  -48.3337  -57.8798 H         1 UNK         0.0775 
    110 H110       32.2638  -46.2186  -59.2116 H         1 UNK         0.0840 
    111 H111       30.5571  -46.5672  -59.2382 H         1 UNK         0.0840 
    112 H112       30.9126  -47.8620  -55.7228 H         1 UNK         0.2987 
    113 H113       32.3000  -47.3513  -54.0004 H         1 UNK         0.0785 
    114 H114       30.2323  -48.0328  -51.8336 H         1 UNK         0.0798 
    115 H115       31.1688  -46.5383  -51.9302 H         1 UNK         0.0798 
    116 H116       29.9886  -46.9166  -53.1672 H         1 UNK         0.0798 
    117 H117       32.6141  -48.5612  -51.4375 H         1 UNK         0.3079 
    118 H118       34.6117  -49.1513  -50.7293 H         1 UNK         0.0794 
    119 H119       33.6424  -51.3680  -51.2248 H         1 UNK         0.0786 
    120 H120       35.2965  -51.5481  -50.6611 H         1 UNK         0.0786 
    121 H121       34.9250  -51.7099  -52.3770 H         1 UNK         0.0786 
    122 H122       36.5773  -49.8370  -52.8734 H         1 UNK         0.3032 
    123 H123       36.0981  -48.2731  -49.5759 H         1 UNK         0.1094 
    124 H124       37.8417  -47.1114  -48.3265 H         1 UNK         0.0794 
    125 H125       38.4607  -48.6337  -48.9446 H         1 UNK         0.0794 
    126 H126       38.9198  -47.1230  -49.7186 H         1 UNK         0.0794 
    127 H127       37.1879  -45.8471  -50.9437 H         1 UNK         0.3016 
@<TRIPOS>BOND
     1    1    2 1    
     2    1   67 1    
     3    1   68 1    
     4    1   69 1    
     5    2    3 2    
     6    2    4 am   BACKBONE|DICT|INTERRES
     7    4    5 1    
     8    4   70 1    
     9    5    6 1    
    10    5   65 1    
    11    5   71 1    
    12    6    7 1    
    13    6   72 1    
    14    6   73 1    
    15    7    8 1    
    16    8    9 1    
    17    8   74 1    
    18    8   75 1    
    19    9   10 ar   
    20    9   14 ar   
    21   10   11 ar   
    22   10   76 1    
    23   11   12 ar   
    24   11   48 1    
    25   12   13 ar   
    26   12   77 1    
    27   13   14 ar   
    28   13   15 1    
    29   14   78 1    
    30   15   16 1    
    31   15   79 1    
    32   15   80 1    
    33   16   17 1    
    34   17   18 1    
    35   17   81 1    
    36   17   82 1    
    37   18   19 1    
    38   18   22 1    
    39   18   83 1    
    40   19   20 am   BACKBONE|DICT|INTERRES
    41   19   21 2    
    42   20   84 1    
    43   20   85 1    
    44   22   23 am   BACKBONE|DICT|INTERRES
    45   22   86 1    
    46   23   24 2    
    47   23   25 1    
    48   25   26 1    
    49   25   27 1    
    50   25   87 1    
    51   26   88 1    
    52   26   89 1    
    53   26   90 1    
    54   27   28 am   BACKBONE|DICT|INTERRES
    55   27   91 1    
    56   28   29 2    
    57   28   30 1    
    58   30   31 1    
    59   30   32 1    
    60   30   92 1    
    61   31   93 1    
    62   31   94 1    
    63   31   95 1    
    64   32   33 am   BACKBONE|DICT|INTERRES
    65   32   96 1    
    66   33   34 2    
    67   33   35 1    
    68   35   36 1    
    69   35   37 1    
    70   35   97 1    
    71   36   98 1    
    72   36   99 1    
    73   36  100 1    
    74   37   38 am   BACKBONE|DICT|INTERRES
    75   37  101 1    
    76   38   39 2    
    77   38   40 1    
    78   40   41 1    
    79   40   42 1    
    80   40  102 1    
    81   41  103 1    
    82   41  104 1    
    83   41  105 1    
    84   42   43 am   BACKBONE|DICT|INTERRES
    85   42  106 1    
    86   43   44 2    
    87   43   45 1    
    88   45   46 1    
    89   45   49 1    
    90   45  107 1    
    91   46   47 1    
    92   46  108 1    
    93   46  109 1    
    94   47   48 1    
    95   48  110 1    
    96   48  111 1    
    97   49   50 am   BACKBONE|DICT|INTERRES
    98   49  112 1    
    99   50   51 2    
   100   50   52 1    
   101   52   53 1    
   102   52   54 1    
   103   52  113 1    
   104   53  114 1    
   105   53  115 1    
   106   53  116 1    
   107   54   55 am   BACKBONE|DICT|INTERRES
   108   54  117 1    
   109   55   56 2    
   110   55   57 1    
   111   57   58 1    
   112   57   59 1    
   113   57  118 1    
   114   58  119 1    
   115   58  120 1    
   116   58  121 1    
   117   59   60 am   BACKBONE|DICT|INTERRES
   118   59  122 1    
   119   60   61 2    
   120   60   62 1    
   121   62   63 1    
   122   62   64 1    
   123   62  123 1    
   124   63  124 1    
   125   63  125 1    
   126   63  126 1    
   127   64   65 am   BACKBONE|DICT|INTERRES
   128   64  127 1    
   129   65   66 2    
@<TRIPOS>SUBSTRUCTURE
     1 UNK         1 GROUP             0       ****    0 ROOT    
