@<TRIPOS>MOLECULE
3R134
127   129    1
SMALL
USER_CHARGES


@<TRIPOS>ATOM
      1 CA         37.8673  -44.3765  -50.3006 C.3       0 UNK        -0.1968 
      2 C          37.4162  -44.8331  -51.6805 C.2       0 UNK         0.4852 
      3 O          38.2122  -44.8123  -52.6210 O.2       0 UNK        -0.5359 
      4 N          36.1455  -45.2370  -51.8095 N.am      1 UNK        -0.4300 
      5 CA         35.5602  -45.7746  -53.0409 C.3       1 UNK         0.0863 
      6 C6         34.0126  -45.7149  -52.9907 C.3       11 UNK        -0.0953 
      7 S7         33.2531  -45.7787  -54.6522 S.3       11 UNK        -0.2369 
      8 C8         32.7211  -44.0533  -54.8868 C.3       11 UNK         0.0226 
      9 C9         31.2535  -43.8449  -54.5326 C.ar      11 UNK        -0.0699 
     10 C10        30.8211  -43.9046  -53.2034 C.ar      11 UNK        -0.0804 
     11 C11        29.4805  -43.6740  -52.8799 C.ar      11 UNK        -0.0871 
     12 C12        28.5707  -43.3719  -53.8969 C.ar      11 UNK        -0.1008 
     13 C13        28.9867  -43.3112  -55.2315 C.ar      11 UNK        -0.0735 
     14 C14        30.3291  -43.5505  -55.5399 C.ar      11 UNK        -0.0945 
     15 C15        28.0116  -42.9261  -56.3383 C.3       11 UNK         0.0169 
     16 S16        26.4495  -43.8581  -56.2699 S.3       11 UNK        -0.2669 
     17 C17        25.5248  -43.0627  -57.6287 C.3       11 UNK        -0.0850 
     18 CA         25.0355  -44.0749  -58.7036 C.3       10 UNK         0.0855 
     19 C          24.1082  -43.4129  -59.7690 C.2       10 UNK         0.5543 
     20 N          24.1061  -43.8676  -61.0164 N.am      10 UNK        -0.7343 
     21 O          23.3545  -42.4935  -59.4581 O.2       10 UNK        -0.5027 
     22 N          26.1165  -44.9080  -59.2607 N.am      10 UNK        -0.4495 
     23 C          27.1756  -44.4968  -59.9658 C.2       10 UNK         0.4903 
     24 O          27.4178  -43.3154  -60.2180 O.2       10 UNK        -0.4860 
     25 CA         28.1146  -45.6078  -60.4824 C.3       9 UNK         0.0227 
     26 CB         29.1756  -45.0706  -61.4617 C.3       9 UNK        -0.1964 
     27 N          28.7937  -46.3423  -59.4094 N.am      9 UNK        -0.4231 
     28 C          28.2268  -47.2116  -58.5613 C.2       9 UNK         0.5014 
     29 O          27.0198  -47.4721  -58.5561 O.2       9 UNK        -0.5270 
     30 CA         29.1842  -47.8833  -57.5558 C.3       8 UNK         0.0284 
     31 CB         29.6715  -46.8696  -56.5056 C.3       8 UNK        -0.1977 
     32 N          28.5828  -49.0183  -56.8550 N.am      8 UNK        -0.4342 
     33 C          28.1640  -50.1659  -57.4048 C.2       8 UNK         0.5039 
     34 O          28.3113  -50.4538  -58.5940 O.2       8 UNK        -0.5547 
     35 CA         27.4719  -51.1736  -56.4703 C.3       7 UNK         0.0281 
     36 CB         28.4806  -52.2181  -55.9636 C.3       7 UNK        -0.1963 
     37 N          26.8456  -50.5192  -55.3173 N.am      7 UNK        -0.4444 
     38 C          25.5564  -50.1610  -55.2422 C.2       7 UNK         0.5104 
     39 O          24.7353  -50.3730  -56.1352 O.2       7 UNK        -0.5100 
     40 CA         25.0841  -49.4730  -53.9448 C.3       6 UNK         0.0396 
     41 CB         24.4182  -50.4981  -53.0127 C.3       6 UNK        -0.1801 
     42 N          26.1588  -48.7939  -53.2151 N.am      6 UNK        -0.4747 
     43 C          26.7019  -47.6208  -53.5747 C.2       6 UNK         0.5012 
     44 O          26.2961  -46.9506  -54.5217 O.2       6 UNK        -0.5003 
     45 CA         27.9250  -47.1304  -52.7651 C.3       5 UNK         0.0782 
     46 C46        27.4942  -46.0919  -51.7008 C.3       11 UNK        -0.0868 
     47 S47        28.9158  -45.4097  -50.7789 S.3       11 UNK        -0.2515 
     48 C48        29.0246  -43.7116  -51.4278 C.3       11 UNK         0.0199 
     49 N          28.7193  -48.2236  -52.1791 N.am      5 UNK        -0.4607 
     50 C          29.3149  -49.1933  -52.8813 C.2       4 UNK         0.5031 
     51 O          29.1612  -49.3418  -54.0940 O.2       4 UNK        -0.5119 
     52 CA         30.1741  -50.2036  -52.1047 C.3       4 UNK         0.0263 
     53 CB         29.3117  -51.3922  -51.6498 C.3       4 UNK        -0.1967 
     54 N          31.2689  -50.6978  -52.9442 N.am      4 UNK        -0.4237 
     55 C          32.2901  -49.9356  -53.3545 C.2       3 UNK         0.4908 
     56 O          32.5071  -48.7996  -52.9277 O.2       3 UNK        -0.5102 
     57 CA         33.1988  -50.5309  -54.4372 C.3       3 UNK         0.0241 
     58 CB         32.4430  -50.6961  -55.7701 C.3       3 UNK        -0.1971 
     59 N          34.3321  -49.6338  -54.6396 N.am      3 UNK        -0.4139 
     60 C          35.5865  -49.9992  -54.9220 C.2       2 UNK         0.5016 
     61 O          35.9352  -51.1698  -55.0840 O.2       2 UNK        -0.5319 
     62 CA         36.6370  -48.8798  -55.0658 C.3       2 UNK         0.0286 
     63 CB         37.0855  -48.7497  -56.5314 C.3       2 UNK        -0.1963 
     64 N          36.1801  -47.5664  -54.5967 N.am      2 UNK        -0.4790 
     65 C          36.0757  -47.2057  -53.3109 C.2       1 UNK         0.5024 
     66 O          36.3475  -47.9548  -52.3690 O.2       1 UNK        -0.4888 
     67 H67        38.6880  -45.0011  -49.9489 H         1 UNK         0.0892 
     68 H68        38.2170  -43.3453  -50.3421 H         1 UNK         0.0892 
     69 H69        37.0618  -44.4316  -49.5685 H         1 UNK         0.0892 
     70 H70        35.5518  -45.2675  -50.9932 H         1 UNK         0.3107 
     71 H71        35.8991  -45.1326  -53.8575 H         1 UNK         0.0773 
     72 H72        33.6986  -44.7926  -52.5021 H         1 UNK         0.0680 
     73 H73        33.6047  -46.5179  -52.3754 H         1 UNK         0.0680 
     74 H74        32.8975  -43.7888  -55.9304 H         1 UNK         0.0650 
     75 H75        33.3443  -43.3763  -54.3012 H         1 UNK         0.0650 
     76 H76        31.5256  -44.1259  -52.4150 H         1 UNK         0.1397 
     77 H77        27.5365  -43.1730  -53.6510 H         1 UNK         0.1363 
     78 H78        30.6602  -43.4887  -56.5675 H         1 UNK         0.1355 
     79 H79        27.7974  -41.8598  -56.2547 H         1 UNK         0.0707 
     80 H80        28.4623  -43.0807  -57.3202 H         1 UNK         0.0707 
     81 H81        24.6745  -42.5479  -57.1780 H         1 UNK         0.1034 
     82 H82        26.1302  -42.2824  -58.0925 H         1 UNK         0.1034 
     83 H83        24.3835  -44.7822  -58.1900 H         1 UNK         0.0482 
     84 H84        23.4968  -43.4427  -61.6976 H         1 UNK         0.3460 
     85 H85        24.7074  -44.6313  -61.2805 H         1 UNK         0.3460 
     86 H86        26.0685  -45.9007  -59.0446 H         1 UNK         0.2989 
     87 H87        27.4934  -46.3176  -61.0328 H         1 UNK         0.0559 
     88 H88        29.8550  -44.3677  -60.9778 H         1 UNK         0.0848 
     89 H89        28.7072  -44.5472  -62.2966 H         1 UNK         0.0848 
     90 H90        29.7725  -45.8784  -61.8854 H         1 UNK         0.0848 
     91 H91        29.7840  -46.1682  -59.3168 H         1 UNK         0.3144 
     92 H92        30.0469  -48.2609  -58.1082 H         1 UNK         0.0727 
     93 H93        30.2409  -46.0641  -56.9689 H         1 UNK         0.0790 
     94 H94        30.3259  -47.3360  -55.7680 H         1 UNK         0.0790 
     95 H95        28.8365  -46.4125  -55.9720 H         1 UNK         0.0790 
     96 H96        28.5048  -48.9286  -55.8474 H         1 UNK         0.3215 
     97 H97        26.7123  -51.6953  -57.0567 H         1 UNK         0.0863 
     98 H98        29.2581  -51.7637  -55.3499 H         1 UNK         0.0808 
     99 H99        28.9734  -52.7219  -56.7963 H         1 UNK         0.0808 
    100 H100       27.9884  -52.9854  -55.3659 H         1 UNK         0.0808 
    101 H101       27.4719  -50.2427  -54.5694 H         1 UNK         0.3118 
    102 H102       24.3324  -48.7306  -54.2218 H         1 UNK         0.0546 
    103 H103       25.1198  -51.2686  -52.6905 H         1 UNK         0.0828 
    104 H104       23.5908  -51.0016  -53.5148 H         1 UNK         0.0828 
    105 H105       24.0102  -50.0198  -52.1222 H         1 UNK         0.0828 
    106 H106       26.5469  -49.2746  -52.4163 H         1 UNK         0.3005 
    107 H107       28.5760  -46.6196  -53.4792 H         1 UNK         0.1257 
    108 H108       26.8125  -46.5462  -50.9793 H         1 UNK         0.0775 
    109 H109       26.9400  -45.2737  -52.1649 H         1 UNK         0.0775 
    110 H110       28.0612  -43.2137  -51.3067 H         1 UNK         0.0840 
    111 H111       29.7319  -43.1488  -50.8168 H         1 UNK         0.0840 
    112 H112       28.8863  -48.1596  -51.1851 H         1 UNK         0.2987 
    113 H113       30.6000  -49.7115  -51.2276 H         1 UNK         0.0785 
    114 H114       28.5037  -51.0628  -50.9952 H         1 UNK         0.0798 
    115 H115       29.9017  -52.1188  -51.0907 H         1 UNK         0.0798 
    116 H116       28.8559  -51.9097  -52.4954 H         1 UNK         0.0798 
    117 H117       31.1458  -51.6107  -53.3561 H         1 UNK         0.3079 
    118 H118       33.5517  -51.5032  -54.0867 H         1 UNK         0.0794 
    119 H119       31.6352  -51.4221  -55.6809 H         1 UNK         0.0786 
    120 H120       33.1047  -51.0506  -56.5606 H         1 UNK         0.0786 
    121 H121       32.0005  -49.7549  -56.1009 H         1 UNK         0.0786 
    122 H122       34.1372  -48.6609  -54.4368 H         1 UNK         0.3032 
    123 H123       37.5022  -49.1777  -54.4688 H         1 UNK         0.1094 
    124 H124       37.4717  -49.6979  -56.9084 H         1 UNK         0.0794 
    125 H125       36.2611  -48.4530  -57.1811 H         1 UNK         0.0794 
    126 H126       37.8822  -48.0135  -56.6396 H         1 UNK         0.0794 
    127 H127       35.9106  -46.9015  -55.3088 H         1 UNK         0.3016 
@<TRIPOS>BOND
     1    1    2 1    
     2    1   67 1    
     3    1   68 1    
     4    1   69 1    
     5    2    3 2    
     6    2    4 am   BACKBONE|DICT|INTERRES
     7    4    5 1    
     8    4   70 1    
     9    5    6 1    
    10    5   65 1    
    11    5   71 1    
    12    6    7 1    
    13    6   72 1    
    14    6   73 1    
    15    7    8 1    
    16    8    9 1    
    17    8   74 1    
    18    8   75 1    
    19    9   10 ar   
    20    9   14 ar   
    21   10   11 ar   
    22   10   76 1    
    23   11   12 ar   
    24   11   48 1    
    25   12   13 ar   
    26   12   77 1    
    27   13   14 ar   
    28   13   15 1    
    29   14   78 1    
    30   15   16 1    
    31   15   79 1    
    32   15   80 1    
    33   16   17 1    
    34   17   18 1    
    35   17   81 1    
    36   17   82 1    
    37   18   19 1    
    38   18   22 1    
    39   18   83 1    
    40   19   20 am   BACKBONE|DICT|INTERRES
    41   19   21 2    
    42   20   84 1    
    43   20   85 1    
    44   22   23 am   BACKBONE|DICT|INTERRES
    45   22   86 1    
    46   23   24 2    
    47   23   25 1    
    48   25   26 1    
    49   25   27 1    
    50   25   87 1    
    51   26   88 1    
    52   26   89 1    
    53   26   90 1    
    54   27   28 am   BACKBONE|DICT|INTERRES
    55   27   91 1    
    56   28   29 2    
    57   28   30 1    
    58   30   31 1    
    59   30   32 1    
    60   30   92 1    
    61   31   93 1    
    62   31   94 1    
    63   31   95 1    
    64   32   33 am   BACKBONE|DICT|INTERRES
    65   32   96 1    
    66   33   34 2    
    67   33   35 1    
    68   35   36 1    
    69   35   37 1    
    70   35   97 1    
    71   36   98 1    
    72   36   99 1    
    73   36  100 1    
    74   37   38 am   BACKBONE|DICT|INTERRES
    75   37  101 1    
    76   38   39 2    
    77   38   40 1    
    78   40   41 1    
    79   40   42 1    
    80   40  102 1    
    81   41  103 1    
    82   41  104 1    
    83   41  105 1    
    84   42   43 am   BACKBONE|DICT|INTERRES
    85   42  106 1    
    86   43   44 2    
    87   43   45 1    
    88   45   46 1    
    89   45   49 1    
    90   45  107 1    
    91   46   47 1    
    92   46  108 1    
    93   46  109 1    
    94   47   48 1    
    95   48  110 1    
    96   48  111 1    
    97   49   50 am   BACKBONE|DICT|INTERRES
    98   49  112 1    
    99   50   51 2    
   100   50   52 1    
   101   52   53 1    
   102   52   54 1    
   103   52  113 1    
   104   53  114 1    
   105   53  115 1    
   106   53  116 1    
   107   54   55 am   BACKBONE|DICT|INTERRES
   108   54  117 1    
   109   55   56 2    
   110   55   57 1    
   111   57   58 1    
   112   57   59 1    
   113   57  118 1    
   114   58  119 1    
   115   58  120 1    
   116   58  121 1    
   117   59   60 am   BACKBONE|DICT|INTERRES
   118   59  122 1    
   119   60   61 2    
   120   60   62 1    
   121   62   63 1    
   122   62   64 1    
   123   62  123 1    
   124   63  124 1    
   125   63  125 1    
   126   63  126 1    
   127   64   65 am   BACKBONE|DICT|INTERRES
   128   64  127 1    
   129   65   66 2    
@<TRIPOS>SUBSTRUCTURE
     1 UNK         1 GROUP             0       ****    0 ROOT    
