@<TRIPOS>MOLECULE
3R134
127   129    1
SMALL
USER_CHARGES


@<TRIPOS>ATOM
      1 CA         37.0848  -46.9338  -57.1438 C.3       0 UNK        -0.1968 
      2 C          36.6334  -46.6093  -55.7269 C.2       0 UNK         0.4852 
      3 O          37.4159  -46.7739  -54.7892 O.2       0 UNK        -0.5359 
      4 N          35.3822  -46.1492  -55.5782 N.am      1 UNK        -0.4300 
      5 CA         34.7143  -45.8014  -54.3131 C.3       1 UNK         0.0863 
      6 C6         35.3769  -44.6057  -53.5684 C.3       11 UNK        -0.0953 
      7 S7         35.5521  -43.1395  -54.6424 S.3       11 UNK        -0.2369 
      8 C8         34.3456  -41.9820  -53.9239 C.3       11 UNK         0.0226 
      9 C9         32.9045  -42.4601  -54.0555 C.ar      11 UNK        -0.0699 
     10 C10        32.1471  -42.7249  -52.9102 C.ar      11 UNK        -0.0804 
     11 C11        30.7997  -43.0815  -53.0130 C.ar      11 UNK        -0.0871 
     12 C12        30.2184  -43.1665  -54.2813 C.ar      11 UNK        -0.1008 
     13 C13        30.9675  -42.9550  -55.4431 C.ar      11 UNK        -0.0735 
     14 C14        32.3119  -42.5882  -55.3169 C.ar      11 UNK        -0.0945 
     15 C15        30.3465  -43.0796  -56.8371 C.3       11 UNK         0.0169 
     16 S16        29.0620  -44.3756  -56.9895 S.3       11 UNK        -0.2669 
     17 C17        27.5454  -43.4819  -56.4788 C.3       11 UNK        -0.0850 
     18 CA         26.2994  -43.8035  -57.3406 C.3       10 UNK         0.0855 
     19 C          26.4359  -43.3113  -58.8129 C.2       10 UNK         0.5543 
     20 N          26.3256  -44.1666  -59.8232 N.am      10 UNK        -0.7343 
     21 O          26.6303  -42.1198  -59.0413 O.2       10 UNK        -0.5027 
     22 N          25.9017  -45.2083  -57.1815 N.am      10 UNK        -0.4495 
     23 C          24.6706  -45.6883  -57.3942 C.2       10 UNK         0.4903 
     24 O          23.6974  -44.9783  -57.6542 O.2       10 UNK        -0.4860 
     25 CA         24.5061  -47.2207  -57.3120 C.3       9 UNK         0.0227 
     26 CB         23.2552  -47.7247  -58.0614 C.3       9 UNK        -0.1964 
     27 N          25.6944  -47.9679  -57.7468 N.am      9 UNK        -0.4231 
     28 C          26.3308  -47.8764  -58.9272 C.2       9 UNK         0.5014 
     29 O          25.9804  -47.1182  -59.8330 O.2       9 UNK        -0.5270 
     30 CA         27.5887  -48.7392  -59.1333 C.3       8 UNK         0.0284 
     31 CB         28.8127  -47.8506  -59.4195 C.3       8 UNK        -0.1977 
     32 N          27.8693  -49.6034  -57.9810 N.am      8 UNK        -0.4342 
     33 C          27.4129  -50.8580  -57.8613 C.2       8 UNK         0.5039 
     34 O          26.7634  -51.4317  -58.7368 O.2       8 UNK        -0.5547 
     35 CA         27.6997  -51.6065  -56.5482 C.3       7 UNK         0.0281 
     36 CB         29.0238  -52.3813  -56.6366 C.3       7 UNK        -0.1963 
     37 N          27.6842  -50.7734  -55.3399 N.am      7 UNK        -0.4444 
     38 C          26.5909  -50.1576  -54.8636 C.2       7 UNK         0.5104 
     39 O          25.5313  -50.0699  -55.4831 O.2       7 UNK        -0.5100 
     40 CA         26.6882  -49.5466  -53.4576 C.3       6 UNK         0.0396 
     41 CB         26.7976  -50.6442  -52.3862 C.3       6 UNK        -0.1801 
     42 N          27.8284  -48.6438  -53.3509 N.am      6 UNK        -0.4747 
     43 C          27.8168  -47.3578  -53.7311 C.2       6 UNK         0.5012 
     44 O          26.8136  -46.7666  -54.1330 O.2       6 UNK        -0.5003 
     45 CA         29.1812  -46.6356  -53.7156 C.3       5 UNK         0.0782 
     46 C46        29.5165  -46.0642  -52.3134 C.3       11 UNK        -0.0868 
     47 S47        28.6164  -44.5274  -51.9223 S.3       11 UNK        -0.2515 
     48 C48        29.9843  -43.3247  -51.7419 C.3       11 UNK         0.0199 
     49 N          30.2602  -47.5020  -54.2034 N.am      5 UNK        -0.4607 
     50 C          30.2873  -48.0974  -55.4066 C.2       4 UNK         0.5031 
     51 O          29.4158  -47.9552  -56.2609 O.2       4 UNK        -0.5119 
     52 CA         31.4405  -49.0708  -55.6945 C.3       4 UNK         0.0263 
     53 CB         32.5393  -48.3681  -56.5042 C.3       4 UNK        -0.1967 
     54 N          32.0011  -49.6792  -54.4835 N.am      4 UNK        -0.4237 
     55 C          31.3148  -50.4926  -53.6623 C.2       3 UNK         0.4908 
     56 O          30.1513  -50.8425  -53.8700 O.2       3 UNK        -0.5102 
     57 CA         32.0092  -50.9572  -52.3684 C.3       3 UNK         0.0241 
     58 CB         32.6483  -52.3395  -52.5732 C.3       3 UNK        -0.1971 
     59 N          33.0195  -50.0233  -51.8600 N.am      3 UNK        -0.4139 
     60 C          32.7858  -48.7523  -51.5026 C.2       2 UNK         0.5016 
     61 O          31.6717  -48.2302  -51.5367 O.2       2 UNK        -0.5319 
     62 CA         33.9977  -47.8870  -51.1060 C.3       2 UNK         0.0286 
     63 CB         35.2809  -48.6946  -50.8028 C.3       2 UNK        -0.1963 
     64 N          34.2684  -46.8537  -52.1166 N.am      2 UNK        -0.4790 
     65 C          34.5005  -47.0528  -53.4247 C.2       1 UNK         0.5024 
     66 O          34.5031  -48.1745  -53.9416 O.2       1 UNK        -0.4888 
     67 H67        37.3665  -47.9839  -57.2156 H         1 UNK         0.0892 
     68 H68        36.3013  -46.7427  -57.8769 H         1 UNK         0.0892 
     69 H69        37.9515  -46.3288  -57.4089 H         1 UNK         0.0892 
     70 H70        34.8062  -46.0487  -56.4009 H         1 UNK         0.3107 
     71 H71        33.7088  -45.4830  -54.5937 H         1 UNK         0.0773 
     72 H72        34.7979  -44.3184  -52.6900 H         1 UNK         0.0680 
     73 H73        36.3675  -44.8790  -53.2016 H         1 UNK         0.0680 
     74 H74        34.4433  -41.0210  -54.4306 H         1 UNK         0.0650 
     75 H75        34.6061  -41.8017  -52.8798 H         1 UNK         0.0650 
     76 H76        32.6005  -42.6256  -51.9332 H         1 UNK         0.1397 
     77 H77        29.1724  -43.4053  -54.3564 H         1 UNK         0.1363 
     78 H78        32.9006  -42.3876  -56.2018 H         1 UNK         0.1355 
     79 H79        31.1298  -43.3209  -57.5573 H         1 UNK         0.0707 
     80 H80        29.9438  -42.1133  -57.1426 H         1 UNK         0.0707 
     81 H81        27.3209  -43.7429  -55.4440 H         1 UNK         0.1034 
     82 H82        27.7288  -42.4061  -56.4765 H         1 UNK         0.1034 
     83 H83        25.4861  -43.2052  -56.9251 H         1 UNK         0.0482 
     84 H84        26.4111  -43.8242  -60.7664 H         1 UNK         0.3460 
     85 H85        26.1619  -45.1551  -59.6615 H         1 UNK         0.3460 
     86 H86        26.6483  -45.8562  -56.9750 H         1 UNK         0.2989 
     87 H87        24.3755  -47.4530  -56.2540 H         1 UNK         0.0559 
     88 H88        23.2974  -47.4831  -59.1240 H         1 UNK         0.0848 
     89 H89        22.3471  -47.2730  -57.6601 H         1 UNK         0.0848 
     90 H90        23.1457  -48.8050  -57.9665 H         1 UNK         0.0848 
     91 H91        26.0416  -48.6426  -57.0756 H         1 UNK         0.3144 
     92 H92        27.4161  -49.3540  -60.0190 H         1 UNK         0.0727 
     93 H93        28.9595  -47.0971  -58.6454 H         1 UNK         0.0790 
     94 H94        28.6920  -47.3171  -60.3632 H         1 UNK         0.0790 
     95 H95        29.7268  -48.4395  -59.4946 H         1 UNK         0.0790 
     96 H96        28.4006  -49.1760  -57.2232 H         1 UNK         0.3215 
     97 H97        26.9015  -52.3426  -56.4282 H         1 UNK         0.0863 
     98 H98        29.2045  -52.9661  -55.7343 H         1 UNK         0.0808 
     99 H99        29.8746  -51.7186  -56.7818 H         1 UNK         0.0808 
    100 H100       29.0104  -53.0777  -57.4761 H         1 UNK         0.0808 
    101 H101       28.5293  -50.7835  -54.7713 H         1 UNK         0.3118 
    102 H102       25.7688  -48.9882  -53.2674 H         1 UNK         0.0546 
    103 H103       25.9568  -51.3362  -52.4507 H         1 UNK         0.0828 
    104 H104       26.7884  -50.2181  -51.3830 H         1 UNK         0.0828 
    105 H105       27.7112  -51.2308  -52.4905 H         1 UNK         0.0828 
    106 H106       28.7134  -49.0580  -53.0899 H         1 UNK         0.3005 
    107 H107       29.1111  -45.8107  -54.4251 H         1 UNK         0.1257 
    108 H108       30.5848  -45.8514  -52.2494 H         1 UNK         0.0775 
    109 H109       29.3208  -46.7975  -51.5286 H         1 UNK         0.0775 
    110 H110       29.5651  -42.3721  -51.4160 H         1 UNK         0.0840 
    111 H111       30.6361  -43.6654  -50.9357 H         1 UNK         0.0840 
    112 H112       30.9820  -47.7273  -53.5292 H         1 UNK         0.2987 
    113 H113       31.0433  -49.8767  -56.3107 H         1 UNK         0.0785 
    114 H114       32.8903  -47.4679  -56.0034 H         1 UNK         0.0798 
    115 H115       32.1620  -48.0642  -57.4817 H         1 UNK         0.0798 
    116 H116       33.3961  -49.0206  -56.6733 H         1 UNK         0.0798 
    117 H117       32.9446  -49.4001  -54.2295 H         1 UNK         0.3079 
    118 H118       31.2346  -51.0477  -51.6041 H         1 UNK         0.0794 
    119 H119       33.4538  -52.3073  -53.3081 H         1 UNK         0.0786 
    120 H120       31.9112  -53.0612  -52.9288 H         1 UNK         0.0786 
    121 H121       33.0574  -52.7304  -51.6414 H         1 UNK         0.0786 
    122 H122       33.9734  -50.3535  -51.8373 H         1 UNK         0.3032 
    123 H123       33.7086  -47.3690  -50.1899 H         1 UNK         0.1094 
    124 H124       36.0693  -48.0413  -50.4287 H         1 UNK         0.0794 
    125 H125       35.1022  -49.4468  -50.0331 H         1 UNK         0.0794 
    126 H126       35.6736  -49.2036  -51.6838 H         1 UNK         0.0794 
    127 H127       34.2370  -45.9022  -51.7788 H         1 UNK         0.3016 
@<TRIPOS>BOND
     1    1    2 1    
     2    1   67 1    
     3    1   68 1    
     4    1   69 1    
     5    2    3 2    
     6    2    4 am   BACKBONE|DICT|INTERRES
     7    4    5 1    
     8    4   70 1    
     9    5    6 1    
    10    5   65 1    
    11    5   71 1    
    12    6    7 1    
    13    6   72 1    
    14    6   73 1    
    15    7    8 1    
    16    8    9 1    
    17    8   74 1    
    18    8   75 1    
    19    9   10 ar   
    20    9   14 ar   
    21   10   11 ar   
    22   10   76 1    
    23   11   12 ar   
    24   11   48 1    
    25   12   13 ar   
    26   12   77 1    
    27   13   14 ar   
    28   13   15 1    
    29   14   78 1    
    30   15   16 1    
    31   15   79 1    
    32   15   80 1    
    33   16   17 1    
    34   17   18 1    
    35   17   81 1    
    36   17   82 1    
    37   18   19 1    
    38   18   22 1    
    39   18   83 1    
    40   19   20 am   BACKBONE|DICT|INTERRES
    41   19   21 2    
    42   20   84 1    
    43   20   85 1    
    44   22   23 am   BACKBONE|DICT|INTERRES
    45   22   86 1    
    46   23   24 2    
    47   23   25 1    
    48   25   26 1    
    49   25   27 1    
    50   25   87 1    
    51   26   88 1    
    52   26   89 1    
    53   26   90 1    
    54   27   28 am   BACKBONE|DICT|INTERRES
    55   27   91 1    
    56   28   29 2    
    57   28   30 1    
    58   30   31 1    
    59   30   32 1    
    60   30   92 1    
    61   31   93 1    
    62   31   94 1    
    63   31   95 1    
    64   32   33 am   BACKBONE|DICT|INTERRES
    65   32   96 1    
    66   33   34 2    
    67   33   35 1    
    68   35   36 1    
    69   35   37 1    
    70   35   97 1    
    71   36   98 1    
    72   36   99 1    
    73   36  100 1    
    74   37   38 am   BACKBONE|DICT|INTERRES
    75   37  101 1    
    76   38   39 2    
    77   38   40 1    
    78   40   41 1    
    79   40   42 1    
    80   40  102 1    
    81   41  103 1    
    82   41  104 1    
    83   41  105 1    
    84   42   43 am   BACKBONE|DICT|INTERRES
    85   42  106 1    
    86   43   44 2    
    87   43   45 1    
    88   45   46 1    
    89   45   49 1    
    90   45  107 1    
    91   46   47 1    
    92   46  108 1    
    93   46  109 1    
    94   47   48 1    
    95   48  110 1    
    96   48  111 1    
    97   49   50 am   BACKBONE|DICT|INTERRES
    98   49  112 1    
    99   50   51 2    
   100   50   52 1    
   101   52   53 1    
   102   52   54 1    
   103   52  113 1    
   104   53  114 1    
   105   53  115 1    
   106   53  116 1    
   107   54   55 am   BACKBONE|DICT|INTERRES
   108   54  117 1    
   109   55   56 2    
   110   55   57 1    
   111   57   58 1    
   112   57   59 1    
   113   57  118 1    
   114   58  119 1    
   115   58  120 1    
   116   58  121 1    
   117   59   60 am   BACKBONE|DICT|INTERRES
   118   59  122 1    
   119   60   61 2    
   120   60   62 1    
   121   62   63 1    
   122   62   64 1    
   123   62  123 1    
   124   63  124 1    
   125   63  125 1    
   126   63  126 1    
   127   64   65 am   BACKBONE|DICT|INTERRES
   128   64  127 1    
   129   65   66 2    
@<TRIPOS>SUBSTRUCTURE
     1 UNK         1 GROUP             0       ****    0 ROOT    
