@<TRIPOS>MOLECULE
3R134
127   129    1
SMALL
USER_CHARGES


@<TRIPOS>ATOM
      1 CA         36.7374  -41.5139  -52.9120 C.3       0 UNK        -0.1968 
      2 C          36.9828  -42.7603  -53.7501 C.2       0 UNK         0.4852 
      3 O          38.1261  -43.0317  -54.1217 O.2       0 UNK        -0.5359 
      4 N          35.9182  -43.5132  -54.0548 N.am      1 UNK        -0.4300 
      5 CA         35.9711  -44.7853  -54.7801 C.3       1 UNK         0.0863 
      6 C6         34.6282  -45.0793  -55.5037 C.3       11 UNK        -0.0953 
      7 S7         33.2326  -45.5507  -54.4218 S.3       11 UNK        -0.2369 
      8 C8         32.3549  -43.9705  -54.2174 C.3       11 UNK         0.0226 
      9 C9         31.0101  -44.1692  -53.5328 C.ar      11 UNK        -0.0699 
     10 C10        30.9442  -44.7154  -52.2472 C.ar      11 UNK        -0.0804 
     11 C11        29.7094  -44.9290  -51.6275 C.ar      11 UNK        -0.0871 
     12 C12        28.5344  -44.5566  -52.2859 C.ar      11 UNK        -0.1008 
     13 C13        28.5878  -44.0094  -53.5707 C.ar      11 UNK        -0.0735 
     14 C14        29.8275  -43.8144  -54.1877 C.ar      11 UNK        -0.0945 
     15 C15        27.3032  -43.6423  -54.2972 C.3       11 UNK         0.0169 
     16 S16        26.4244  -45.1111  -54.9211 S.3       11 UNK        -0.2669 
     17 C17        27.5951  -45.7591  -56.1646 C.3       11 UNK        -0.0850 
     18 CA         27.4700  -45.0467  -57.5360 C.3       10 UNK         0.0855 
     19 C          28.6191  -45.4625  -58.5009 C.2       10 UNK         0.5543 
     20 N          28.3485  -46.0236  -59.6746 N.am      10 UNK        -0.7343 
     21 O          29.7864  -45.2511  -58.1839 O.2       10 UNK        -0.5027 
     22 N          26.1223  -45.1951  -58.1054 N.am      10 UNK        -0.4495 
     23 C          25.5677  -44.3373  -58.9728 C.2       10 UNK         0.4903 
     24 O          26.0941  -43.2742  -59.3067 O.2       10 UNK        -0.4860 
     25 CA         24.1994  -44.7310  -59.5732 C.3       9 UNK         0.0227 
     26 CB         23.9385  -44.0611  -60.9396 C.3       9 UNK        -0.1964 
     27 N          23.9878  -46.1825  -59.6639 N.am      9 UNK        -0.4231 
     28 C          24.7578  -47.0695  -60.3104 C.2       9 UNK         0.5014 
     29 O          25.7606  -46.7776  -60.9667 O.2       9 UNK        -0.5270 
     30 CA         24.3731  -48.5478  -60.1428 C.3       8 UNK         0.0284 
     31 CB         24.0393  -49.1876  -61.5007 C.3       8 UNK        -0.1977 
     32 N          25.4478  -49.3041  -59.4957 N.am      8 UNK        -0.4342 
     33 C          25.9317  -49.0582  -58.2705 C.2       8 UNK         0.5039 
     34 O          25.5128  -48.1609  -57.5335 O.2       8 UNK        -0.5547 
     35 CA         27.1005  -49.9485  -57.8152 C.3       7 UNK         0.0281 
     36 CB         28.4417  -49.3622  -58.2825 C.3       7 UNK        -0.1963 
     37 N          27.1266  -50.1297  -56.3608 N.am      7 UNK        -0.4444 
     38 C          26.2334  -50.8688  -55.6841 C.2       7 UNK         0.5104 
     39 O          25.3116  -51.4786  -56.2293 O.2       7 UNK        -0.5100 
     40 CA         26.3962  -51.0021  -54.1569 C.3       6 UNK         0.0396 
     41 CB         26.7045  -52.4602  -53.7753 C.3       6 UNK        -0.1801 
     42 N          27.4475  -50.1474  -53.6046 N.am      6 UNK        -0.4747 
     43 C          27.2815  -48.8835  -53.1907 C.2       6 UNK         0.5012 
     44 O          26.1957  -48.3045  -53.1903 O.2       6 UNK        -0.5003 
     45 CA         28.5379  -48.1479  -52.6749 C.3       5 UNK         0.0782 
     46 C46        28.5017  -48.0451  -51.1256 C.3       11 UNK        -0.0868 
     47 S47        30.0240  -47.3679  -50.3710 S.3       11 UNK        -0.2515 
     48 C48        29.6508  -45.5889  -50.2594 C.3       11 UNK         0.0199 
     49 N          29.7943  -48.7290  -53.1638 N.am      5 UNK        -0.4607 
     50 C          30.2059  -48.7338  -54.4367 C.2       4 UNK         0.5031 
     51 O          29.4948  -48.3604  -55.3683 O.2       4 UNK        -0.5119 
     52 CA         31.6326  -49.2513  -54.7139 C.3       4 UNK         0.0263 
     53 CB         32.1393  -48.8440  -56.1104 C.3       4 UNK        -0.1967 
     54 N          32.6031  -48.8038  -53.7090 N.am      4 UNK        -0.4237 
     55 C          32.7841  -49.3529  -52.5003 C.2       3 UNK         0.4908 
     56 O          32.1110  -50.2981  -52.0847 O.2       3 UNK        -0.5102 
     57 CA         33.8690  -48.7222  -51.6034 C.3       3 UNK         0.0241 
     58 CB         34.2484  -49.6198  -50.4067 C.3       3 UNK        -0.1971 
     59 N          35.0743  -48.3063  -52.3334 N.am      3 UNK        -0.4139 
     60 C          35.8786  -49.0570  -53.1016 C.2       2 UNK         0.5016 
     61 O          35.6936  -50.2553  -53.3222 O.2       2 UNK        -0.5319 
     62 CA         37.0900  -48.3365  -53.7378 C.3       2 UNK         0.0286 
     63 CB         37.8716  -49.2392  -54.7115 C.3       2 UNK        -0.1963 
     64 N          36.7175  -47.1012  -54.4397 N.am      2 UNK        -0.4790 
     65 C          36.4172  -45.9361  -53.8507 C.2       1 UNK         0.5024 
     66 O          36.4279  -45.7830  -52.6255 O.2       1 UNK        -0.4888 
     67 H67        37.2950  -41.5751  -51.9778 H         1 UNK         0.0892 
     68 H68        35.6827  -41.3859  -52.6692 H         1 UNK         0.0892 
     69 H69        37.0708  -40.6274  -53.4510 H         1 UNK         0.0892 
     70 H70        35.0148  -43.2667  -53.6804 H         1 UNK         0.3107 
     71 H71        36.7377  -44.6927  -55.5528 H         1 UNK         0.0773 
     72 H72        34.3395  -44.2225  -56.1145 H         1 UNK         0.0680 
     73 H73        34.7684  -45.8951  -56.2147 H         1 UNK         0.0680 
     74 H74        32.9621  -43.2871  -53.6234 H         1 UNK         0.0650 
     75 H75        32.2215  -43.5064  -55.1958 H         1 UNK         0.0650 
     76 H76        31.8549  -45.0051  -51.7409 H         1 UNK         0.1397 
     77 H77        27.5744  -44.7215  -51.8156 H         1 UNK         0.1363 
     78 H78        29.8695  -43.3989  -55.1855 H         1 UNK         0.1355 
     79 H79        27.5049  -42.9605  -55.1246 H         1 UNK         0.0707 
     80 H80        26.6448  -43.1035  -53.6143 H         1 UNK         0.0707 
     81 H81        27.4059  -46.8273  -56.2771 H         1 UNK         0.1034 
     82 H82        28.6113  -45.6914  -55.7747 H         1 UNK         0.1034 
     83 H83        27.6317  -43.9832  -57.3523 H         1 UNK         0.0482 
     84 H84        29.1111  -46.2698  -60.2841 H         1 UNK         0.3460 
     85 H85        27.3936  -46.1889  -59.9750 H         1 UNK         0.3460 
     86 H86        25.6525  -46.0692  -57.8940 H         1 UNK         0.2989 
     87 H87        23.4487  -44.3584  -58.8749 H         1 UNK         0.0559 
     88 H88        24.6929  -44.3396  -61.6762 H         1 UNK         0.0848 
     89 H89        23.9541  -42.9739  -60.8541 H         1 UNK         0.0848 
     90 H90        22.9625  -44.3375  -61.3382 H         1 UNK         0.0848 
     91 H91        23.2146  -46.5404  -59.1192 H         1 UNK         0.3144 
     92 H92        23.4885  -48.6189  -59.5062 H         1 UNK         0.0727 
     93 H93        23.7135  -50.2215  -61.3847 H         1 UNK         0.0790 
     94 H94        24.8974  -49.1783  -62.1743 H         1 UNK         0.0790 
     95 H95        23.2312  -48.6481  -61.9967 H         1 UNK         0.0790 
     96 H96        25.8765  -50.0323  -60.0484 H         1 UNK         0.3215 
     97 H97        26.9815  -50.9337  -58.2719 H         1 UNK         0.0863 
     98 H98        29.2761  -50.0043  -58.0007 H         1 UNK         0.0808 
     99 H99        28.6205  -48.3765  -57.8545 H         1 UNK         0.0808 
    100 H100       28.4680  -49.2524  -59.3673 H         1 UNK         0.0808 
    101 H101       27.8269  -49.6052  -55.8490 H         1 UNK         0.3118 
    102 H102       25.4390  -50.7326  -53.7056 H         1 UNK         0.0546 
    103 H103       25.9188  -53.1318  -54.1244 H         1 UNK         0.0828 
    104 H104       26.7723  -52.5822  -52.6942 H         1 UNK         0.0828 
    105 H105       27.6430  -52.8032  -54.2125 H         1 UNK         0.0828 
    106 H106       28.3777  -50.5390  -53.5613 H         1 UNK         0.3005 
    107 H107       28.4832  -47.1400  -53.0892 H         1 UNK         0.1257 
    108 H108       28.3497  -49.0340  -50.6883 H         1 UNK         0.0775 
    109 H109       27.6483  -47.4442  -50.8058 H         1 UNK         0.0775 
    110 H110       28.6768  -45.4425  -49.7899 H         1 UNK         0.0840 
    111 H111       30.3805  -45.1159  -49.6006 H         1 UNK         0.0840 
    112 H112       30.4264  -49.0876  -52.4579 H         1 UNK         0.2987 
    113 H113       31.5835  -50.3418  -54.6863 H         1 UNK         0.0785 
    114 H114       32.1486  -47.7606  -56.2358 H         1 UNK         0.0798 
    115 H115       31.5007  -49.2542  -56.8936 H         1 UNK         0.0798 
    116 H116       33.1487  -49.2136  -56.2919 H         1 UNK         0.0798 
    117 H117       33.1473  -47.9864  -53.9496 H         1 UNK         0.3079 
    118 H118       33.4270  -47.8089  -51.2016 H         1 UNK         0.0794 
    119 H119       34.6564  -50.5767  -50.7341 H         1 UNK         0.0786 
    120 H120       33.3782  -49.8318  -49.7840 H         1 UNK         0.0786 
    121 H121       34.9903  -49.1387  -49.7693 H         1 UNK         0.0786 
    122 H122       35.3367  -47.3289  -52.2349 H         1 UNK         0.3032 
    123 H123       37.7637  -48.0794  -52.9168 H         1 UNK         0.1094 
    124 H124       38.7507  -48.7302  -55.1070 H         1 UNK         0.0794 
    125 H125       38.2234  -50.1429  -54.2118 H         1 UNK         0.0794 
    126 H126       37.2552  -49.5518  -55.5553 H         1 UNK         0.0794 
    127 H127       36.6488  -47.1661  -55.4456 H         1 UNK         0.3016 
@<TRIPOS>BOND
     1    1    2 1    
     2    1   67 1    
     3    1   68 1    
     4    1   69 1    
     5    2    3 2    
     6    2    4 am   BACKBONE|DICT|INTERRES
     7    4    5 1    
     8    4   70 1    
     9    5    6 1    
    10    5   65 1    
    11    5   71 1    
    12    6    7 1    
    13    6   72 1    
    14    6   73 1    
    15    7    8 1    
    16    8    9 1    
    17    8   74 1    
    18    8   75 1    
    19    9   10 ar   
    20    9   14 ar   
    21   10   11 ar   
    22   10   76 1    
    23   11   12 ar   
    24   11   48 1    
    25   12   13 ar   
    26   12   77 1    
    27   13   14 ar   
    28   13   15 1    
    29   14   78 1    
    30   15   16 1    
    31   15   79 1    
    32   15   80 1    
    33   16   17 1    
    34   17   18 1    
    35   17   81 1    
    36   17   82 1    
    37   18   19 1    
    38   18   22 1    
    39   18   83 1    
    40   19   20 am   BACKBONE|DICT|INTERRES
    41   19   21 2    
    42   20   84 1    
    43   20   85 1    
    44   22   23 am   BACKBONE|DICT|INTERRES
    45   22   86 1    
    46   23   24 2    
    47   23   25 1    
    48   25   26 1    
    49   25   27 1    
    50   25   87 1    
    51   26   88 1    
    52   26   89 1    
    53   26   90 1    
    54   27   28 am   BACKBONE|DICT|INTERRES
    55   27   91 1    
    56   28   29 2    
    57   28   30 1    
    58   30   31 1    
    59   30   32 1    
    60   30   92 1    
    61   31   93 1    
    62   31   94 1    
    63   31   95 1    
    64   32   33 am   BACKBONE|DICT|INTERRES
    65   32   96 1    
    66   33   34 2    
    67   33   35 1    
    68   35   36 1    
    69   35   37 1    
    70   35   97 1    
    71   36   98 1    
    72   36   99 1    
    73   36  100 1    
    74   37   38 am   BACKBONE|DICT|INTERRES
    75   37  101 1    
    76   38   39 2    
    77   38   40 1    
    78   40   41 1    
    79   40   42 1    
    80   40  102 1    
    81   41  103 1    
    82   41  104 1    
    83   41  105 1    
    84   42   43 am   BACKBONE|DICT|INTERRES
    85   42  106 1    
    86   43   44 2    
    87   43   45 1    
    88   45   46 1    
    89   45   49 1    
    90   45  107 1    
    91   46   47 1    
    92   46  108 1    
    93   46  109 1    
    94   47   48 1    
    95   48  110 1    
    96   48  111 1    
    97   49   50 am   BACKBONE|DICT|INTERRES
    98   49  112 1    
    99   50   51 2    
   100   50   52 1    
   101   52   53 1    
   102   52   54 1    
   103   52  113 1    
   104   53  114 1    
   105   53  115 1    
   106   53  116 1    
   107   54   55 am   BACKBONE|DICT|INTERRES
   108   54  117 1    
   109   55   56 2    
   110   55   57 1    
   111   57   58 1    
   112   57   59 1    
   113   57  118 1    
   114   58  119 1    
   115   58  120 1    
   116   58  121 1    
   117   59   60 am   BACKBONE|DICT|INTERRES
   118   59  122 1    
   119   60   61 2    
   120   60   62 1    
   121   62   63 1    
   122   62   64 1    
   123   62  123 1    
   124   63  124 1    
   125   63  125 1    
   126   63  126 1    
   127   64   65 am   BACKBONE|DICT|INTERRES
   128   64  127 1    
   129   65   66 2    
@<TRIPOS>SUBSTRUCTURE
     1 UNK         1 GROUP             0       ****    0 ROOT    
