@<TRIPOS>MOLECULE
3R134
127   129    1
SMALL
USER_CHARGES


@<TRIPOS>ATOM
      1 CA         36.3949  -43.7387  -51.6841 C.3       0 UNK        -0.1968 
      2 C          36.8085  -45.1208  -52.1684 C.2       0 UNK         0.4852 
      3 O          37.8221  -45.6523  -51.7118 O.2       0 UNK        -0.5359 
      4 N          36.0350  -45.7010  -53.0938 N.am      1 UNK        -0.4300 
      5 CA         36.2154  -47.0591  -53.6121 C.3       1 UNK         0.0863 
      6 C6         35.5165  -47.2474  -54.9851 C.3       11 UNK        -0.0953 
      7 S7         33.7432  -46.8018  -55.0015 S.3       11 UNK        -0.2369 
      8 C8         33.7921  -45.2320  -55.9181 C.3       11 UNK         0.0226 
      9 C9         32.4269  -44.5622  -55.9671 C.ar      11 UNK        -0.0699 
     10 C10        32.0552  -43.6423  -54.9814 C.ar      11 UNK        -0.0804 
     11 C11        30.8182  -42.9927  -55.0474 C.ar      11 UNK        -0.0871 
     12 C12        29.9622  -43.2508  -56.1218 C.ar      11 UNK        -0.1008 
     13 C13        30.3058  -44.1960  -57.0927 C.ar      11 UNK        -0.0735 
     14 C14        31.5416  -44.8459  -57.0114 C.ar      11 UNK        -0.0945 
     15 C15        29.3459  -44.5152  -58.2296 C.3       11 UNK         0.0169 
     16 S16        27.9872  -45.5941  -57.6760 S.3       11 UNK        -0.2669 
     17 C17        26.7984  -44.3769  -57.0108 C.3       11 UNK        -0.0850 
     18 CA         25.3560  -44.9345  -56.9105 C.3       10 UNK         0.0855 
     19 C          24.4146  -43.8894  -56.2534 C.2       10 UNK         0.5543 
     20 N          24.4188  -43.8201  -54.9297 N.am      10 UNK        -0.7343 
     21 O          23.7332  -43.1163  -56.9243 O.2       10 UNK        -0.5027 
     22 N          24.8982  -45.4509  -58.2064 N.am      10 UNK        -0.4495 
     23 C          23.7431  -46.0825  -58.4533 C.2       10 UNK         0.4903 
     24 O          22.8393  -46.2388  -57.6321 O.2       10 UNK        -0.4860 
     25 CA         23.6108  -46.7090  -59.8552 C.3       9 UNK         0.0227 
     26 CB         23.0881  -45.6757  -60.8663 C.3       9 UNK        -0.1964 
     27 N          24.8789  -47.2766  -60.3347 N.am      9 UNK        -0.4231 
     28 C          25.5134  -48.3068  -59.7541 C.2       9 UNK         0.5014 
     29 O          25.0325  -48.9643  -58.8291 O.2       9 UNK        -0.5270 
     30 CA         26.9287  -48.6497  -60.2453 C.3       8 UNK         0.0284 
     31 CB         27.5053  -47.6707  -61.2900 C.3       8 UNK        -0.1977 
     32 N          27.7957  -48.6683  -59.0716 N.am      8 UNK        -0.4342 
     33 C          28.7000  -49.6027  -58.7637 C.2       8 UNK         0.5039 
     34 O          28.9820  -50.5570  -59.4900 O.2       8 UNK        -0.5547 
     35 CA         29.4172  -49.4427  -57.4100 C.3       7 UNK         0.0281 
     36 CB         30.7448  -48.6893  -57.5959 C.3       7 UNK        -0.1963 
     37 N          28.6132  -48.7351  -56.4093 N.am      7 UNK        -0.4444 
     38 C          27.5258  -49.2254  -55.7934 C.2       7 UNK         0.5104 
     39 O          27.0815  -50.3553  -55.9989 O.2       7 UNK        -0.5100 
     40 CA         26.8359  -48.3058  -54.7659 C.3       6 UNK         0.0396 
     41 CB         26.1872  -49.0860  -53.6075 C.3       6 UNK        -0.1801 
     42 N          27.7946  -47.3416  -54.2344 N.am      6 UNK        -0.4747 
     43 C          27.5640  -46.0956  -53.8114 C.2       6 UNK         0.5012 
     44 O          26.4428  -45.5861  -53.7592 O.2       6 UNK        -0.5003 
     45 CA         28.8164  -45.2928  -53.3842 C.3       5 UNK         0.0782 
     46 C46        28.4854  -43.8642  -52.8749 C.3       11 UNK        -0.0868 
     47 S47        29.9739  -42.9105  -52.4044 S.3       11 UNK        -0.2515 
     48 C48        30.3946  -42.0311  -53.9462 C.3       11 UNK         0.0199 
     49 N          29.6673  -46.0441  -52.4492 N.am      5 UNK        -0.4607 
     50 C          30.4949  -47.0352  -52.8023 C.2       4 UNK         0.5031 
     51 O          30.5781  -47.4439  -53.9632 O.2       4 UNK        -0.5119 
     52 CA         31.3524  -47.6648  -51.6866 C.3       4 UNK         0.0263 
     53 CB         30.5422  -47.9690  -50.4068 C.3       4 UNK        -0.1967 
     54 N          32.0755  -48.8544  -52.1528 N.am      4 UNK        -0.4237 
     55 C          31.5546  -50.0192  -52.5767 C.2       3 UNK         0.4908 
     56 O          30.3623  -50.3169  -52.4863 O.2       3 UNK        -0.5102 
     57 CA         32.5124  -51.0250  -53.2462 C.3       3 UNK         0.0241 
     58 CB         32.2671  -51.0557  -54.7648 C.3       3 UNK        -0.1971 
     59 N          33.9281  -50.7370  -53.0072 N.am      3 UNK        -0.4139 
     60 C          34.5753  -50.9608  -51.8557 C.2       2 UNK         0.5016 
     61 O          34.0710  -51.5239  -50.8837 O.2       2 UNK        -0.5319 
     62 CA         36.0256  -50.4480  -51.7641 C.3       2 UNK         0.0286 
     63 CB         37.0171  -51.5894  -52.0429 C.3       2 UNK        -0.1963 
     64 N          36.3261  -49.3183  -52.6563 N.am      2 UNK        -0.4790 
     65 C          35.7517  -48.1085  -52.5804 C.2       1 UNK         0.5024 
     66 O          34.8645  -47.8293  -51.7700 O.2       1 UNK        -0.4888 
     67 H67        37.1907  -43.0196  -51.8768 H         1 UNK         0.0892 
     68 H68        35.4914  -43.3852  -52.1807 H         1 UNK         0.0892 
     69 H69        36.2058  -43.7589  -50.6111 H         1 UNK         0.0892 
     70 H70        35.1861  -45.2440  -53.3918 H         1 UNK         0.3107 
     71 H71        37.2858  -47.2125  -53.7674 H         1 UNK         0.0773 
     72 H72        36.0377  -46.6519  -55.7361 H         1 UNK         0.0680 
     73 H73        35.6108  -48.2795  -55.3276 H         1 UNK         0.0680 
     74 H74        34.1508  -45.4209  -56.9311 H         1 UNK         0.0650 
     75 H75        34.5174  -44.5608  -55.4563 H         1 UNK         0.0650 
     76 H76        32.7240  -43.4365  -54.1570 H         1 UNK         0.1397 
     77 H77        29.0147  -42.7357  -56.1863 H         1 UNK         0.1363 
     78 H78        31.8216  -45.5688  -57.7649 H         1 UNK         0.1355 
     79 H79        29.8766  -45.0208  -59.0379 H         1 UNK         0.0707 
     80 H80        28.9511  -43.5939  -58.6600 H         1 UNK         0.0707 
     81 H81        26.8099  -43.4824  -57.6365 H         1 UNK         0.1034 
     82 H82        27.1466  -44.0662  -56.0256 H         1 UNK         0.1034 
     83 H83        25.3766  -45.7989  -56.2471 H         1 UNK         0.0482 
     84 H84        25.0135  -44.4410  -54.3877 H         1 UNK         0.3460 
     85 H85        23.8351  -43.1437  -54.4640 H         1 UNK         0.3460 
     86 H86        25.5665  -45.3743  -58.9571 H         1 UNK         0.2989 
     87 H87        22.8830  -47.5207  -59.7906 H         1 UNK         0.0559 
     88 H88        23.7814  -44.8435  -60.9939 H         1 UNK         0.0848 
     89 H89        22.1361  -45.2571  -60.5363 H         1 UNK         0.0848 
     90 H90        22.9192  -46.1265  -61.8444 H         1 UNK         0.0848 
     91 H91        25.3338  -46.8026  -61.1017 H         1 UNK         0.3144 
     92 H92        26.8750  -49.6461  -60.6888 H         1 UNK         0.0727 
     93 H93        28.5104  -47.9713  -61.5869 H         1 UNK         0.0790 
     94 H94        27.5720  -46.6521  -60.9048 H         1 UNK         0.0790 
     95 H95        26.9017  -47.6538  -62.1984 H         1 UNK         0.0790 
     96 H96        27.6199  -47.9431  -58.3883 H         1 UNK         0.3215 
     97 H97        29.6348  -50.4413  -57.0253 H         1 UNK         0.0863 
     98 H98        30.5877  -47.7017  -58.0309 H         1 UNK         0.0808 
     99 H99        31.4138  -49.2366  -58.2611 H         1 UNK         0.0808 
    100 H100       31.2660  -48.5547  -56.6475 H         1 UNK         0.0808 
    101 H101       28.9044  -47.7934  -56.1861 H         1 UNK         0.3118 
    102 H102       26.0530  -47.7719  -55.3053 H         1 UNK         0.0546 
    103 H103       25.6871  -48.4158  -52.9083 H         1 UNK         0.0828 
    104 H104       26.9280  -49.6612  -53.0506 H         1 UNK         0.0828 
    105 H105       25.4359  -49.7855  -53.9756 H         1 UNK         0.0828 
    106 H106       28.7644  -47.6553  -54.2049 H         1 UNK         0.3005 
    107 H107       29.3887  -45.1744  -54.3048 H         1 UNK         0.1257 
    108 H108       27.8336  -43.9178  -52.0010 H         1 UNK         0.0775 
    109 H109       27.9320  -43.3033  -53.6302 H         1 UNK         0.0775 
    110 H110       29.5451  -41.4225  -54.2605 H         1 UNK         0.0840 
    111 H111       31.2094  -41.3344  -53.7443 H         1 UNK         0.0840 
    112 H112       29.6300  -45.7513  -51.4842 H         1 UNK         0.2987 
    113 H113       32.1202  -46.9313  -51.4362 H         1 UNK         0.0785 
    114 H114       31.1468  -48.5063  -49.6760 H         1 UNK         0.0798 
    115 H115       30.2017  -47.0530  -49.9237 H         1 UNK         0.0798 
    116 H116       29.6592  -48.5735  -50.6174 H         1 UNK         0.0798 
    117 H117       33.0727  -48.7117  -52.2660 H         1 UNK         0.3079 
    118 H118       32.2851  -52.0130  -52.8399 H         1 UNK         0.0794 
    119 H119       32.8720  -51.8210  -55.2512 H         1 UNK         0.0786 
    120 H120       32.5009  -50.0957  -55.2268 H         1 UNK         0.0786 
    121 H121       31.2227  -51.2777  -54.9893 H         1 UNK         0.0786 
    122 H122       34.4315  -50.2781  -53.7521 H         1 UNK         0.3032 
    123 H123       36.1762  -50.1067  -50.7371 H         1 UNK         0.1094 
    124 H124       36.9328  -51.9577  -53.0662 H         1 UNK         0.0794 
    125 H125       38.0470  -51.2697  -51.8832 H         1 UNK         0.0794 
    126 H126       36.8367  -52.4347  -51.3769 H         1 UNK         0.0794 
    127 H127       37.0423  -49.4743  -53.3524 H         1 UNK         0.3016 
@<TRIPOS>BOND
     1    1    2 1    
     2    1   67 1    
     3    1   68 1    
     4    1   69 1    
     5    2    3 2    
     6    2    4 am   BACKBONE|DICT|INTERRES
     7    4    5 1    
     8    4   70 1    
     9    5    6 1    
    10    5   65 1    
    11    5   71 1    
    12    6    7 1    
    13    6   72 1    
    14    6   73 1    
    15    7    8 1    
    16    8    9 1    
    17    8   74 1    
    18    8   75 1    
    19    9   10 ar   
    20    9   14 ar   
    21   10   11 ar   
    22   10   76 1    
    23   11   12 ar   
    24   11   48 1    
    25   12   13 ar   
    26   12   77 1    
    27   13   14 ar   
    28   13   15 1    
    29   14   78 1    
    30   15   16 1    
    31   15   79 1    
    32   15   80 1    
    33   16   17 1    
    34   17   18 1    
    35   17   81 1    
    36   17   82 1    
    37   18   19 1    
    38   18   22 1    
    39   18   83 1    
    40   19   20 am   BACKBONE|DICT|INTERRES
    41   19   21 2    
    42   20   84 1    
    43   20   85 1    
    44   22   23 am   BACKBONE|DICT|INTERRES
    45   22   86 1    
    46   23   24 2    
    47   23   25 1    
    48   25   26 1    
    49   25   27 1    
    50   25   87 1    
    51   26   88 1    
    52   26   89 1    
    53   26   90 1    
    54   27   28 am   BACKBONE|DICT|INTERRES
    55   27   91 1    
    56   28   29 2    
    57   28   30 1    
    58   30   31 1    
    59   30   32 1    
    60   30   92 1    
    61   31   93 1    
    62   31   94 1    
    63   31   95 1    
    64   32   33 am   BACKBONE|DICT|INTERRES
    65   32   96 1    
    66   33   34 2    
    67   33   35 1    
    68   35   36 1    
    69   35   37 1    
    70   35   97 1    
    71   36   98 1    
    72   36   99 1    
    73   36  100 1    
    74   37   38 am   BACKBONE|DICT|INTERRES
    75   37  101 1    
    76   38   39 2    
    77   38   40 1    
    78   40   41 1    
    79   40   42 1    
    80   40  102 1    
    81   41  103 1    
    82   41  104 1    
    83   41  105 1    
    84   42   43 am   BACKBONE|DICT|INTERRES
    85   42  106 1    
    86   43   44 2    
    87   43   45 1    
    88   45   46 1    
    89   45   49 1    
    90   45  107 1    
    91   46   47 1    
    92   46  108 1    
    93   46  109 1    
    94   47   48 1    
    95   48  110 1    
    96   48  111 1    
    97   49   50 am   BACKBONE|DICT|INTERRES
    98   49  112 1    
    99   50   51 2    
   100   50   52 1    
   101   52   53 1    
   102   52   54 1    
   103   52  113 1    
   104   53  114 1    
   105   53  115 1    
   106   53  116 1    
   107   54   55 am   BACKBONE|DICT|INTERRES
   108   54  117 1    
   109   55   56 2    
   110   55   57 1    
   111   57   58 1    
   112   57   59 1    
   113   57  118 1    
   114   58  119 1    
   115   58  120 1    
   116   58  121 1    
   117   59   60 am   BACKBONE|DICT|INTERRES
   118   59  122 1    
   119   60   61 2    
   120   60   62 1    
   121   62   63 1    
   122   62   64 1    
   123   62  123 1    
   124   63  124 1    
   125   63  125 1    
   126   63  126 1    
   127   64   65 am   BACKBONE|DICT|INTERRES
   128   64  127 1    
   129   65   66 2    
@<TRIPOS>SUBSTRUCTURE
     1 UNK         1 GROUP             0       ****    0 ROOT    
