@<TRIPOS>MOLECULE
3R134
127   129    1
SMALL
USER_CHARGES


@<TRIPOS>ATOM
      1 CA         32.9376  -46.4219  -50.2699 C.3       0 UNK        -0.1968 
      2 C          33.9937  -45.8177  -51.1822 C.2       0 UNK         0.4852 
      3 O          34.5852  -44.7920  -50.8414 O.2       0 UNK        -0.5359 
      4 N          34.2310  -46.4526  -52.3324 N.am      1 UNK        -0.4300 
      5 CA         35.2380  -46.0800  -53.3245 C.3       1 UNK         0.0863 
      6 C6         34.6254  -45.2935  -54.5186 C.3       11 UNK        -0.0953 
      7 S7         33.2382  -46.1407  -55.3603 S.3       11 UNK        -0.2369 
      8 C8         32.4257  -44.7347  -56.1916 C.3       11 UNK         0.0226 
      9 C9         31.4666  -43.8974  -55.3403 C.ar      11 UNK        -0.0699 
     10 C10        31.3515  -44.0238  -53.9472 C.ar      11 UNK        -0.0804 
     11 C11        30.4424  -43.2349  -53.2329 C.ar      11 UNK        -0.0871 
     12 C12        29.6561  -42.3028  -53.9120 C.ar      11 UNK        -0.1008 
     13 C13        29.7527  -42.1696  -55.2968 C.ar      11 UNK        -0.0735 
     14 C14        30.6625  -42.9629  -56.0012 C.ar      11 UNK        -0.0945 
     15 C15        28.8429  -41.1986  -56.0367 C.3       11 UNK         0.0169 
     16 S16        27.0732  -41.6184  -55.8574 S.3       11 UNK        -0.2669 
     17 C17        27.0335  -43.3877  -56.3171 C.3       11 UNK        -0.0850 
     18 CA         26.5110  -43.6909  -57.7427 C.3       10 UNK         0.0855 
     19 C          27.4878  -43.1969  -58.8568 C.2       10 UNK         0.5543 
     20 N          28.2332  -44.0649  -59.5316 N.am      10 UNK        -0.7343 
     21 O          27.5492  -42.0037  -59.1404 O.2       10 UNK        -0.5027 
     22 N          26.1619  -45.1147  -57.8328 N.am      10 UNK        -0.4495 
     23 C          25.4712  -45.6760  -58.8322 C.2       10 UNK         0.4903 
     24 O          24.9172  -45.0339  -59.7262 O.2       10 UNK        -0.4860 
     25 CA         25.4058  -47.2158  -58.8324 C.3       9 UNK         0.0227 
     26 CB         25.0710  -47.7981  -60.2216 C.3       9 UNK        -0.1964 
     27 N          26.6137  -47.8513  -58.2865 N.am      9 UNK        -0.4231 
     28 C          27.8792  -47.7248  -58.7229 C.2       9 UNK         0.5014 
     29 O          28.2025  -46.9997  -59.6644 O.2       9 UNK        -0.5270 
     30 CA         28.9877  -48.5004  -57.9797 C.3       8 UNK         0.0284 
     31 CB         29.9810  -47.5245  -57.3239 C.3       8 UNK        -0.1977 
     32 N          28.4851  -49.4154  -56.9546 N.am      8 UNK        -0.4342 
     33 C          27.8239  -50.5581  -57.1787 C.2       8 UNK         0.5039 
     34 O          27.6526  -51.0482  -58.2949 O.2       8 UNK        -0.5547 
     35 CA         27.1881  -51.2250  -55.9479 C.3       7 UNK         0.0281 
     36 CB         28.1856  -52.1753  -55.2661 C.3       7 UNK        -0.1963 
     37 N          26.6854  -50.2390  -54.9810 N.am      7 UNK        -0.4444 
     38 C          25.6343  -49.4332  -55.1977 C.2       7 UNK         0.5104 
     39 O          24.9595  -49.4590  -56.2260 O.2       7 UNK        -0.5100 
     40 CA         25.2946  -48.4026  -54.1073 C.3       6 UNK         0.0396 
     41 CB         24.3970  -49.0334  -53.0315 C.3       6 UNK        -0.1801 
     42 N          26.4843  -47.8277  -53.4772 N.am      6 UNK        -0.4747 
     43 C          27.3065  -46.9402  -54.0581 C.2       6 UNK         0.5012 
     44 O          27.1265  -46.4725  -55.1847 O.2       6 UNK        -0.5003 
     45 CA         28.5717  -46.5627  -53.2555 C.3       5 UNK         0.0782 
     46 C46        28.2927  -45.3896  -52.2782 C.3       11 UNK        -0.0868 
     47 S47        29.7356  -45.0319  -51.2075 S.3       11 UNK        -0.2515 
     48 C48        30.2946  -43.3775  -51.7250 C.3       11 UNK         0.0199 
     49 N          29.1653  -47.7148  -52.5596 N.am      5 UNK        -0.4607 
     50 C          29.6171  -48.8251  -53.1481 C.2       4 UNK         0.5031 
     51 O          29.4542  -49.0798  -54.3421 O.2       4 UNK        -0.5119 
     52 CA         30.3475  -49.8369  -52.2494 C.3       4 UNK         0.0263 
     53 CB         29.3585  -50.8616  -51.6714 C.3       4 UNK        -0.1967 
     54 N          31.3870  -50.5334  -53.0106 N.am      4 UNK        -0.4237 
     55 C          32.4892  -49.9277  -53.4695 C.2       3 UNK         0.4908 
     56 O          32.8392  -48.7966  -53.1146 O.2       3 UNK        -0.5102 
     57 CA         33.3174  -50.6961  -54.5119 C.3       3 UNK         0.0241 
     58 CB         32.4643  -51.1187  -55.7248 C.3       3 UNK        -0.1971 
     59 N          34.3835  -49.8119  -54.9646 N.am      3 UNK        -0.4139 
     60 C          35.6541  -50.1385  -55.2192 C.2       2 UNK         0.5016 
     61 O          36.0799  -51.2942  -55.2326 O.2       2 UNK        -0.5319 
     62 CA         36.6199  -48.9664  -55.4933 C.3       2 UNK         0.0286 
     63 CB         36.8986  -48.8385  -56.9996 C.3       2 UNK        -0.1963 
     64 N          36.1128  -47.6826  -54.9899 N.am      2 UNK        -0.4790 
     65 C          36.0176  -47.3586  -53.6922 C.2       1 UNK         0.5024 
     66 O          36.4984  -48.0499  -52.7916 O.2       1 UNK        -0.4888 
     67 H67        32.3470  -45.6354  -49.8014 H         1 UNK         0.0892 
     68 H68        32.2580  -47.0727  -50.8204 H         1 UNK         0.0892 
     69 H69        33.4118  -47.0066  -49.4824 H         1 UNK         0.0892 
     70 H70        33.7196  -47.3081  -52.5521 H         1 UNK         0.3107 
     71 H71        35.9804  -45.4300  -52.8569 H         1 UNK         0.0773 
     72 H72        34.2641  -44.3325  -54.1499 H         1 UNK         0.0680 
     73 H73        35.3911  -45.0446  -55.2553 H         1 UNK         0.0680 
     74 H74        31.8707  -45.1376  -57.0395 H         1 UNK         0.0650 
     75 H75        33.1913  -44.0814  -56.6123 H         1 UNK         0.0650 
     76 H76        31.9514  -44.7409  -53.4062 H         1 UNK         0.1397 
     77 H77        28.9452  -41.6941  -53.3695 H         1 UNK         0.1363 
     78 H78        30.7337  -42.8650  -57.0763 H         1 UNK         0.1355 
     79 H79        29.0069  -40.1915  -55.6513 H         1 UNK         0.0707 
     80 H80        29.0962  -41.1628  -57.0968 H         1 UNK         0.0707 
     81 H81        28.0005  -43.8659  -56.1638 H         1 UNK         0.1034 
     82 H82        26.3734  -43.8604  -55.5878 H         1 UNK         0.1034 
     83 H83        25.5821  -43.1339  -57.8791 H         1 UNK         0.0482 
     84 H84        28.8425  -43.7211  -60.2558 H         1 UNK         0.3460 
     85 H85        28.1499  -45.0657  -59.3849 H         1 UNK         0.3460 
     86 H86        26.5638  -45.7170  -57.1231 H         1 UNK         0.2989 
     87 H87        24.5912  -47.4822  -58.1579 H         1 UNK         0.0559 
     88 H88        24.1065  -47.4347  -60.5781 H         1 UNK         0.0848 
     89 H89        25.0141  -48.8863  -60.1915 H         1 UNK         0.0848 
     90 H90        25.8184  -47.5215  -60.9661 H         1 UNK         0.0848 
     91 H91        26.4485  -48.4620  -57.4960 H         1 UNK         0.3144 
     92 H92        29.5259  -49.0896  -58.7248 H         1 UNK         0.0727 
     93 H93        29.4942  -46.8871  -56.5850 H         1 UNK         0.0790 
     94 H94        30.4355  -46.8708  -58.0691 H         1 UNK         0.0790 
     95 H95        30.7913  -48.0542  -56.8224 H         1 UNK         0.0790 
     96 H96        28.6627  -49.1516  -55.9858 H         1 UNK         0.3215 
     97 H97        26.3385  -51.8175  -56.2948 H         1 UNK         0.0863 
     98 H98        27.7354  -52.6786  -54.4105 H         1 UNK         0.0808 
     99 H99        29.0772  -51.6512  -54.9226 H         1 UNK         0.0808 
    100 H100       28.5154  -52.9503  -55.9592 H         1 UNK         0.0808 
    101 H101       27.2257  -50.1084  -54.1389 H         1 UNK         0.3118 
    102 H102       24.7353  -47.5921  -54.5802 H         1 UNK         0.0546 
    103 H103       24.9018  -49.8432  -52.5032 H         1 UNK         0.0828 
    104 H104       23.4913  -49.4494  -53.4753 H         1 UNK         0.0828 
    105 H105       24.0832  -48.2948  -52.2937 H         1 UNK         0.0828 
    106 H106       26.7179  -48.1561  -52.5511 H         1 UNK         0.3005 
    107 H107       29.3108  -46.2221  -53.9849 H         1 UNK         0.1257 
    108 H108       27.4527  -45.6282  -51.6232 H         1 UNK         0.0775 
    109 H109       28.0005  -44.4926  -52.8267 H         1 UNK         0.0775 
    110 H110       29.5952  -42.6385  -51.3308 H         1 UNK         0.0840 
    111 H111       31.2556  -43.1684  -51.2529 H         1 UNK         0.0840 
    112 H112       29.3387  -47.5761  -51.5744 H         1 UNK         0.2987 
    113 H113       30.8222  -49.3014  -51.4243 H         1 UNK         0.0785 
    114 H114       28.5879  -50.3696  -51.0764 H         1 UNK         0.0798 
    115 H115       29.8638  -51.5723  -51.0171 H         1 UNK         0.0798 
    116 H116       28.8534  -51.4288  -52.4530 H         1 UNK         0.0798 
    117 H117       31.1570  -51.4531  -53.3554 H         1 UNK         0.3079 
    118 H118       33.7426  -51.5774  -54.0274 H         1 UNK         0.0794 
    119 H119       33.0808  -51.5661  -56.5047 H         1 UNK         0.0786 
    120 H120       31.9386  -50.2685  -56.1624 H         1 UNK         0.0786 
    121 H121       31.7139  -51.8597  -55.4485 H         1 UNK         0.0786 
    122 H122       34.1495  -48.8290  -54.9053 H         1 UNK         0.3032 
    123 H123       37.5598  -49.1927  -54.9844 H         1 UNK         0.1094 
    124 H124       35.9918  -48.6081  -57.5605 H         1 UNK         0.0794 
    125 H125       37.6291  -48.0554  -57.2034 H         1 UNK         0.0794 
    126 H126       37.3027  -49.7688  -57.4016 H         1 UNK         0.0794 
    127 H127       35.6803  -47.0672  -55.6660 H         1 UNK         0.3016 
@<TRIPOS>BOND
     1    1    2 1    
     2    1   67 1    
     3    1   68 1    
     4    1   69 1    
     5    2    3 2    
     6    2    4 am   BACKBONE|DICT|INTERRES
     7    4    5 1    
     8    4   70 1    
     9    5    6 1    
    10    5   65 1    
    11    5   71 1    
    12    6    7 1    
    13    6   72 1    
    14    6   73 1    
    15    7    8 1    
    16    8    9 1    
    17    8   74 1    
    18    8   75 1    
    19    9   10 ar   
    20    9   14 ar   
    21   10   11 ar   
    22   10   76 1    
    23   11   12 ar   
    24   11   48 1    
    25   12   13 ar   
    26   12   77 1    
    27   13   14 ar   
    28   13   15 1    
    29   14   78 1    
    30   15   16 1    
    31   15   79 1    
    32   15   80 1    
    33   16   17 1    
    34   17   18 1    
    35   17   81 1    
    36   17   82 1    
    37   18   19 1    
    38   18   22 1    
    39   18   83 1    
    40   19   20 am   BACKBONE|DICT|INTERRES
    41   19   21 2    
    42   20   84 1    
    43   20   85 1    
    44   22   23 am   BACKBONE|DICT|INTERRES
    45   22   86 1    
    46   23   24 2    
    47   23   25 1    
    48   25   26 1    
    49   25   27 1    
    50   25   87 1    
    51   26   88 1    
    52   26   89 1    
    53   26   90 1    
    54   27   28 am   BACKBONE|DICT|INTERRES
    55   27   91 1    
    56   28   29 2    
    57   28   30 1    
    58   30   31 1    
    59   30   32 1    
    60   30   92 1    
    61   31   93 1    
    62   31   94 1    
    63   31   95 1    
    64   32   33 am   BACKBONE|DICT|INTERRES
    65   32   96 1    
    66   33   34 2    
    67   33   35 1    
    68   35   36 1    
    69   35   37 1    
    70   35   97 1    
    71   36   98 1    
    72   36   99 1    
    73   36  100 1    
    74   37   38 am   BACKBONE|DICT|INTERRES
    75   37  101 1    
    76   38   39 2    
    77   38   40 1    
    78   40   41 1    
    79   40   42 1    
    80   40  102 1    
    81   41  103 1    
    82   41  104 1    
    83   41  105 1    
    84   42   43 am   BACKBONE|DICT|INTERRES
    85   42  106 1    
    86   43   44 2    
    87   43   45 1    
    88   45   46 1    
    89   45   49 1    
    90   45  107 1    
    91   46   47 1    
    92   46  108 1    
    93   46  109 1    
    94   47   48 1    
    95   48  110 1    
    96   48  111 1    
    97   49   50 am   BACKBONE|DICT|INTERRES
    98   49  112 1    
    99   50   51 2    
   100   50   52 1    
   101   52   53 1    
   102   52   54 1    
   103   52  113 1    
   104   53  114 1    
   105   53  115 1    
   106   53  116 1    
   107   54   55 am   BACKBONE|DICT|INTERRES
   108   54  117 1    
   109   55   56 2    
   110   55   57 1    
   111   57   58 1    
   112   57   59 1    
   113   57  118 1    
   114   58  119 1    
   115   58  120 1    
   116   58  121 1    
   117   59   60 am   BACKBONE|DICT|INTERRES
   118   59  122 1    
   119   60   61 2    
   120   60   62 1    
   121   62   63 1    
   122   62   64 1    
   123   62  123 1    
   124   63  124 1    
   125   63  125 1    
   126   63  126 1    
   127   64   65 am   BACKBONE|DICT|INTERRES
   128   64  127 1    
   129   65   66 2    
@<TRIPOS>SUBSTRUCTURE
     1 UNK         1 GROUP             0       ****    0 ROOT    
