@<TRIPOS>MOLECULE
3R134
127   129    1
SMALL
USER_CHARGES


@<TRIPOS>ATOM
      1 CA         37.3204  -44.1158  -58.3119 C.3       0 UNK        -0.1968 
      2 C          36.0434  -44.9058  -58.0641 C.2       0 UNK         0.4852 
      3 O          35.5368  -45.5518  -58.9832 O.2       0 UNK        -0.5359 
      4 N          35.5174  -44.8512  -56.8339 N.am      1 UNK        -0.4300 
      5 CA         34.3209  -45.5807  -56.3977 C.3       1 UNK         0.0863 
      6 C6         33.7305  -44.9992  -55.0868 C.3       11 UNK        -0.0953 
      7 S7         33.3078  -43.2355  -55.2611 S.3       11 UNK        -0.2369 
      8 C8         32.9474  -42.7643  -53.5370 C.3       11 UNK         0.0226 
      9 C9         31.4931  -42.9892  -53.1328 C.ar      11 UNK        -0.0699 
     10 C10        31.1885  -43.5846  -51.9028 C.ar      11 UNK        -0.0804 
     11 C11        29.8596  -43.7086  -51.4818 C.ar      11 UNK        -0.0871 
     12 C12        28.8327  -43.2385  -52.3034 C.ar      11 UNK        -0.1008 
     13 C13        29.1195  -42.6633  -53.5434 C.ar      11 UNK        -0.0735 
     14 C14        30.4502  -42.5344  -53.9489 C.ar      11 UNK        -0.0945 
     15 C15        27.9894  -42.1669  -54.4313 C.3       11 UNK         0.0169 
     16 S16        26.9173  -43.5408  -54.9448 S.3       11 UNK        -0.2669 
     17 C17        25.7731  -42.6985  -56.0924 C.3       11 UNK        -0.0850 
     18 CA         26.0188  -43.0687  -57.5789 C.3       10 UNK         0.0855 
     19 C          27.2476  -42.3225  -58.1808 C.2       10 UNK         0.5543 
     20 N          28.2543  -42.9992  -58.7209 N.am      10 UNK        -0.7343 
     21 O          27.2797  -41.0945  -58.1675 O.2       10 UNK        -0.5027 
     22 N          26.0238  -44.5265  -57.7608 N.am      10 UNK        -0.4495 
     23 C          25.7615  -45.1716  -58.9010 C.2       10 UNK         0.4903 
     24 O          25.3768  -44.6143  -59.9304 O.2       10 UNK        -0.4860 
     25 CA         25.9742  -46.6987  -58.8746 C.3       9 UNK         0.0227 
     26 CB         26.0744  -47.3082  -60.2886 C.3       9 UNK        -0.1964 
     27 N          27.1194  -47.1256  -58.0565 N.am      9 UNK        -0.4231 
     28 C          28.4042  -46.7523  -58.1915 C.2       9 UNK         0.5014 
     29 O          28.7857  -45.8884  -58.9820 O.2       9 UNK        -0.5270 
     30 CA         29.4526  -47.4525  -57.3026 C.3       8 UNK         0.0284 
     31 CB         29.9710  -46.4980  -56.2115 C.3       8 UNK        -0.1977 
     32 N          28.9674  -48.6889  -56.6814 N.am      8 UNK        -0.4342 
     33 C          28.6742  -49.8204  -57.3403 C.2       8 UNK         0.5039 
     34 O          28.8450  -49.9718  -58.5500 O.2       8 UNK        -0.5547 
     35 CA         28.0593  -50.9686  -56.5216 C.3       7 UNK         0.0281 
     36 CB         29.1332  -51.9952  -56.1238 C.3       7 UNK        -0.1963 
     37 N          27.3510  -50.5032  -55.3248 N.am      7 UNK        -0.4444 
     38 C          26.1820  -49.8452  -55.3378 C.2       7 UNK         0.5104 
     39 O          25.5653  -49.5649  -56.3658 O.2       7 UNK        -0.5100 
     40 CA         25.6318  -49.3891  -53.9742 C.3       6 UNK         0.0396 
     41 CB         24.8762  -50.5356  -53.2841 C.3       6 UNK        -0.1801 
     42 N          26.6833  -48.8865  -53.0851 N.am      6 UNK        -0.4747 
     43 C          27.3758  -47.7565  -53.2984 C.2       6 UNK         0.5012 
     44 O          27.1399  -46.9872  -54.2281 O.2       6 UNK        -0.5003 
     45 CA         28.5655  -47.4717  -52.3565 C.3       5 UNK         0.0782 
     46 C46        28.1425  -46.5738  -51.1693 C.3       11 UNK        -0.0868 
     47 S47        29.5737  -46.1254  -50.1229 S.3       11 UNK        -0.2515 
     48 C48        29.5292  -44.3055  -50.1208 C.3       11 UNK         0.0199 
     49 N          29.2154  -48.7056  -51.8944 N.am      5 UNK        -0.4607 
     50 C          29.8667  -49.5666  -52.6813 C.2       4 UNK         0.5031 
     51 O          29.9496  -49.4507  -53.9062 O.2       4 UNK        -0.5119 
     52 CA         30.4813  -50.7868  -51.9925 C.3       4 UNK         0.0263 
     53 CB         29.5060  -51.9758  -52.0112 C.3       4 UNK        -0.1967 
     54 N          31.6986  -51.1387  -52.7111 N.am      4 UNK        -0.4237 
     55 C          32.8620  -51.4853  -52.1489 C.2       3 UNK         0.4908 
     56 O          33.0047  -51.6780  -50.9404 O.2       3 UNK        -0.5102 
     57 CA         34.0846  -51.6450  -53.0770 C.3       3 UNK         0.0241 
     58 CB         34.4410  -53.1325  -53.2398 C.3       3 UNK        -0.1971 
     59 N          33.9367  -51.0442  -54.4092 N.am      3 UNK        -0.4139 
     60 C          33.7815  -49.7368  -54.6616 C.2       2 UNK         0.5016 
     61 O          33.7296  -48.8732  -53.7824 O.2       2 UNK        -0.5319 
     62 CA         33.6161  -49.3568  -56.1467 C.3       2 UNK         0.0286 
     63 CB         32.3279  -49.9673  -56.7240 C.3       2 UNK        -0.1963 
     64 N          33.5708  -47.9073  -56.3532 N.am      2 UNK        -0.4790 
     65 C          34.6212  -47.0857  -56.2396 C.2       1 UNK         0.5024 
     66 O          35.7703  -47.4716  -56.0042 O.2       1 UNK        -0.4888 
     67 H67        37.1628  -43.3872  -59.1067 H         1 UNK         0.0892 
     68 H68        37.6479  -43.5798  -57.4213 H         1 UNK         0.0892 
     69 H69        38.1226  -44.7867  -58.6179 H         1 UNK         0.0892 
     70 H70        35.9828  -44.3148  -56.1165 H         1 UNK         0.3107 
     71 H71        33.5674  -45.4759  -57.1819 H         1 UNK         0.0773 
     72 H72        32.8250  -45.5348  -54.7947 H         1 UNK         0.0680 
     73 H73        34.4385  -45.1148  -54.2639 H         1 UNK         0.0680 
     74 H74        33.1683  -41.7025  -53.4216 H         1 UNK         0.0650 
     75 H75        33.6282  -43.2909  -52.8665 H         1 UNK         0.0650 
     76 H76        31.9854  -43.9298  -51.2582 H         1 UNK         0.1397 
     77 H77        27.8028  -43.3210  -51.9837 H         1 UNK         0.1363 
     78 H78        30.6774  -42.0663  -54.8969 H         1 UNK         0.1355 
     79 H79        27.3996  -41.4267  -53.8887 H         1 UNK         0.0707 
     80 H80        28.3842  -41.6681  -55.3180 H         1 UNK         0.0707 
     81 H81        24.7598  -42.9927  -55.8151 H         1 UNK         0.1034 
     82 H82        25.8074  -41.6177  -55.9417 H         1 UNK         0.1034 
     83 H83        25.1625  -42.6846  -58.1366 H         1 UNK         0.0482 
     84 H84        29.0324  -42.4907  -59.1081 H         1 UNK         0.3460 
     85 H85        28.2529  -44.0137  -58.7562 H         1 UNK         0.3460 
     86 H86        26.3557  -45.0568  -56.9671 H         1 UNK         0.2989 
     87 H87        25.0887  -47.1195  -58.3961 H         1 UNK         0.0559 
     88 H88        25.1709  -47.1118  -60.8671 H         1 UNK         0.0848 
     89 H89        26.2012  -48.3901  -60.2456 H         1 UNK         0.0848 
     90 H90        26.9153  -46.8946  -60.8466 H         1 UNK         0.0848 
     91 H91        26.9107  -47.8254  -57.3555 H         1 UNK         0.3144 
     92 H92        30.2932  -47.7187  -57.9466 H         1 UNK         0.0727 
     93 H93        29.1587  -46.0930  -55.6081 H         1 UNK         0.0790 
     94 H94        30.4903  -45.6469  -56.6545 H         1 UNK         0.0790 
     95 H95        30.6706  -46.9946  -55.5388 H         1 UNK         0.0790 
     96 H96        28.8688  -48.6884  -55.6731 H         1 UNK         0.3215 
     97 H97        27.3347  -51.4717  -57.1660 H         1 UNK         0.0863 
     98 H98        28.6935  -52.8520  -55.6133 H         1 UNK         0.0808 
     99 H99        29.8887  -51.5645  -55.4678 H         1 UNK         0.0808 
    100 H100       29.6506  -52.3763  -57.0053 H         1 UNK         0.0808 
    101 H101       27.8168  -50.6394  -54.4400 H         1 UNK         0.3118 
    102 H102       24.9239  -48.5773  -54.1552 H         1 UNK         0.0546 
    103 H103       25.5322  -51.3757  -53.0528 H         1 UNK         0.0828 
    104 H104       24.0762  -50.9138  -53.9222 H         1 UNK         0.0828 
    105 H105       24.4151  -50.2034  -52.3538 H         1 UNK         0.0828 
    106 H106       26.9327  -49.4601  -52.2923 H         1 UNK         0.3005 
    107 H107       29.2995  -46.9188  -52.9486 H         1 UNK         0.1257 
    108 H108       27.4084  -47.0840  -50.5429 H         1 UNK         0.0775 
    109 H109       27.6516  -45.6694  -51.5303 H         1 UNK         0.0775 
    110 H110       28.5495  -43.9692  -49.7774 H         1 UNK         0.0840 
    111 H111       30.2459  -43.9398  -49.3839 H         1 UNK         0.0840 
    112 H112       29.2000  -48.8632  -50.8970 H         1 UNK         0.2987 
    113 H113       30.7157  -50.5224  -50.9588 H         1 UNK         0.0785 
    114 H114       28.5800  -51.7341  -51.4882 H         1 UNK         0.0798 
    115 H115       29.9386  -52.8455  -51.5162 H         1 UNK         0.0798 
    116 H116       29.2433  -52.2698  -53.0278 H         1 UNK         0.0798 
    117 H117       31.6787  -50.9212  -53.6982 H         1 UNK         0.3079 
    118 H118       34.9216  -51.1454  -52.5848 H         1 UNK         0.0794 
    119 H119       35.3606  -53.2616  -53.8109 H         1 UNK         0.0786 
    120 H120       33.6482  -53.6841  -53.7468 H         1 UNK         0.0786 
    121 H121       34.5975  -53.6064  -52.2696 H         1 UNK         0.0786 
    122 H122       33.9629  -51.6857  -55.1890 H         1 UNK         0.3032 
    123 H123       34.4739  -49.7543  -56.6944 H         1 UNK         0.1094 
    124 H124       31.4579  -49.6639  -56.1436 H         1 UNK         0.0794 
    125 H125       32.1655  -49.6615  -57.7579 H         1 UNK         0.0794 
    126 H126       32.3594  -51.0572  -56.7175 H         1 UNK         0.0794 
    127 H127       32.6583  -47.5078  -56.5105 H         1 UNK         0.3016 
@<TRIPOS>BOND
     1    1    2 1    
     2    1   67 1    
     3    1   68 1    
     4    1   69 1    
     5    2    3 2    
     6    2    4 am   BACKBONE|DICT|INTERRES
     7    4    5 1    
     8    4   70 1    
     9    5    6 1    
    10    5   65 1    
    11    5   71 1    
    12    6    7 1    
    13    6   72 1    
    14    6   73 1    
    15    7    8 1    
    16    8    9 1    
    17    8   74 1    
    18    8   75 1    
    19    9   10 ar   
    20    9   14 ar   
    21   10   11 ar   
    22   10   76 1    
    23   11   12 ar   
    24   11   48 1    
    25   12   13 ar   
    26   12   77 1    
    27   13   14 ar   
    28   13   15 1    
    29   14   78 1    
    30   15   16 1    
    31   15   79 1    
    32   15   80 1    
    33   16   17 1    
    34   17   18 1    
    35   17   81 1    
    36   17   82 1    
    37   18   19 1    
    38   18   22 1    
    39   18   83 1    
    40   19   20 am   BACKBONE|DICT|INTERRES
    41   19   21 2    
    42   20   84 1    
    43   20   85 1    
    44   22   23 am   BACKBONE|DICT|INTERRES
    45   22   86 1    
    46   23   24 2    
    47   23   25 1    
    48   25   26 1    
    49   25   27 1    
    50   25   87 1    
    51   26   88 1    
    52   26   89 1    
    53   26   90 1    
    54   27   28 am   BACKBONE|DICT|INTERRES
    55   27   91 1    
    56   28   29 2    
    57   28   30 1    
    58   30   31 1    
    59   30   32 1    
    60   30   92 1    
    61   31   93 1    
    62   31   94 1    
    63   31   95 1    
    64   32   33 am   BACKBONE|DICT|INTERRES
    65   32   96 1    
    66   33   34 2    
    67   33   35 1    
    68   35   36 1    
    69   35   37 1    
    70   35   97 1    
    71   36   98 1    
    72   36   99 1    
    73   36  100 1    
    74   37   38 am   BACKBONE|DICT|INTERRES
    75   37  101 1    
    76   38   39 2    
    77   38   40 1    
    78   40   41 1    
    79   40   42 1    
    80   40  102 1    
    81   41  103 1    
    82   41  104 1    
    83   41  105 1    
    84   42   43 am   BACKBONE|DICT|INTERRES
    85   42  106 1    
    86   43   44 2    
    87   43   45 1    
    88   45   46 1    
    89   45   49 1    
    90   45  107 1    
    91   46   47 1    
    92   46  108 1    
    93   46  109 1    
    94   47   48 1    
    95   48  110 1    
    96   48  111 1    
    97   49   50 am   BACKBONE|DICT|INTERRES
    98   49  112 1    
    99   50   51 2    
   100   50   52 1    
   101   52   53 1    
   102   52   54 1    
   103   52  113 1    
   104   53  114 1    
   105   53  115 1    
   106   53  116 1    
   107   54   55 am   BACKBONE|DICT|INTERRES
   108   54  117 1    
   109   55   56 2    
   110   55   57 1    
   111   57   58 1    
   112   57   59 1    
   113   57  118 1    
   114   58  119 1    
   115   58  120 1    
   116   58  121 1    
   117   59   60 am   BACKBONE|DICT|INTERRES
   118   59  122 1    
   119   60   61 2    
   120   60   62 1    
   121   62   63 1    
   122   62   64 1    
   123   62  123 1    
   124   63  124 1    
   125   63  125 1    
   126   63  126 1    
   127   64   65 am   BACKBONE|DICT|INTERRES
   128   64  127 1    
   129   65   66 2    
@<TRIPOS>SUBSTRUCTURE
     1 UNK         1 GROUP             0       ****    0 ROOT    
