@<TRIPOS>MOLECULE
3R134
127   129    1
SMALL
USER_CHARGES


@<TRIPOS>ATOM
      1 CA         33.8497  -43.6638  -50.8692 C.3       0 UNK        -0.1968 
      2 C          34.7415  -44.6504  -51.6086 C.2       0 UNK         0.4852 
      3 O          35.8740  -44.8881  -51.1851 O.2       0 UNK        -0.5359 
      4 N          34.2416  -45.2189  -52.7128 N.am      1 UNK        -0.4300 
      5 CA         34.9253  -46.2352  -53.5175 C.3       1 UNK         0.0863 
      6 C6         34.2357  -46.4549  -54.8864 C.3       11 UNK        -0.0953 
      7 S7         34.2991  -44.9826  -55.9606 S.3       11 UNK        -0.2369 
      8 C8         32.7006  -45.1082  -56.8296 C.3       11 UNK         0.0226 
      9 C9         31.6561  -44.1377  -56.2899 C.ar      11 UNK        -0.0699 
     10 C10        31.3300  -44.1179  -54.9307 C.ar      11 UNK        -0.0804 
     11 C11        30.4019  -43.1990  -54.4285 C.ar      11 UNK        -0.0871 
     12 C12        29.7882  -42.3035  -55.3086 C.ar      11 UNK        -0.1008 
     13 C13        30.0825  -42.3256  -56.6767 C.ar      11 UNK        -0.0735 
     14 C14        31.0176  -43.2466  -57.1579 C.ar      11 UNK        -0.0945 
     15 C15        29.4620  -41.3123  -57.6345 C.3       11 UNK         0.0169 
     16 S16        27.6873  -41.0073  -57.3471 S.3       11 UNK        -0.2669 
     17 C17        26.9109  -42.5325  -57.9881 C.3       11 UNK        -0.0850 
     18 CA         26.3311  -43.4709  -56.8841 C.3       10 UNK         0.0855 
     19 C          25.0171  -42.9670  -56.2042 C.2       10 UNK         0.5543 
     20 N          24.8225  -41.6631  -56.0709 N.am      10 UNK        -0.7343 
     21 O          24.1852  -43.7508  -55.7491 O.2       10 UNK        -0.5027 
     22 N          26.2113  -44.8601  -57.3541 N.am      10 UNK        -0.4495 
     23 C          25.4398  -45.2831  -58.3663 C.2       10 UNK         0.4903 
     24 O          24.8080  -44.5305  -59.1104 O.2       10 UNK        -0.4860 
     25 CA         25.3457  -46.8081  -58.5667 C.3       9 UNK         0.0227 
     26 CB         24.7592  -47.2093  -59.9373 C.3       9 UNK        -0.1964 
     27 N          26.6123  -47.4995  -58.3108 N.am      9 UNK        -0.4231 
     28 C          27.7709  -47.3829  -58.9775 C.2       9 UNK         0.5014 
     29 O          27.9289  -46.6656  -59.9662 O.2       9 UNK        -0.5270 
     30 CA         28.9705  -48.1977  -58.4501 C.3       8 UNK         0.0284 
     31 CB         30.0105  -47.2677  -57.8098 C.3       8 UNK        -0.1977 
     32 N          28.6042  -49.2317  -57.4773 N.am      8 UNK        -0.4342 
     33 C          27.9483  -50.3631  -57.7726 C.2       8 UNK         0.5039 
     34 O          27.6544  -50.7093  -58.9170 O.2       8 UNK        -0.5547 
     35 CA         27.5062  -51.2292  -56.5834 C.3       7 UNK         0.0281 
     36 CB         28.6362  -52.1742  -56.1549 C.3       7 UNK        -0.1963 
     37 N          27.0831  -50.4128  -55.4417 N.am      7 UNK        -0.4444 
     38 C          25.9276  -49.7343  -55.3896 C.2       7 UNK         0.5104 
     39 O          25.0820  -49.7513  -56.2832 O.2       7 UNK        -0.5100 
     40 CA         25.6902  -48.8593  -54.1477 C.3       6 UNK         0.0396 
     41 CB         25.1062  -49.6970  -52.9993 C.3       6 UNK        -0.1801 
     42 N          26.9031  -48.1775  -53.6909 N.am      6 UNK        -0.4747 
     43 C          27.5351  -47.2084  -54.3702 C.2       6 UNK         0.5012 
     44 O          27.1511  -46.7685  -55.4530 O.2       6 UNK        -0.5003 
     45 CA         28.8305  -46.6554  -53.7490 C.3       5 UNK         0.0782 
     46 C46        28.5092  -45.4448  -52.8393 C.3       11 UNK        -0.0868 
     47 S47        30.0053  -44.7184  -52.0879 S.3       11 UNK        -0.2515 
     48 C48        30.0973  -43.1064  -52.9351 C.3       11 UNK         0.0199 
     49 N          29.6064  -47.6837  -53.0448 N.am      5 UNK        -0.4607 
     50 C          30.1479  -48.7725  -53.6035 C.2       4 UNK         0.5031 
     51 O          29.9871  -49.0885  -54.7851 O.2       4 UNK        -0.5119 
     52 CA         30.9754  -49.6515  -52.6542 C.3       4 UNK         0.0263 
     53 CB         30.1253  -50.7850  -52.0450 C.3       4 UNK        -0.1967 
     54 N          32.2155  -50.1210  -53.2823 N.am      4 UNK        -0.4237 
     55 C          32.4174  -51.1545  -54.1167 C.2       3 UNK         0.4908 
     56 O          31.5694  -51.9978  -54.4032 O.2       3 UNK        -0.5102 
     57 CA         33.8151  -51.2875  -54.7559 C.3       3 UNK         0.0241 
     58 CB         33.7520  -50.9034  -56.2446 C.3       3 UNK        -0.1971 
     59 N          34.8485  -50.4780  -54.1057 N.am      3 UNK        -0.4139 
     60 C          35.3763  -50.7135  -52.8960 C.2       2 UNK         0.5016 
     61 O          35.1223  -51.7095  -52.2184 O.2       2 UNK        -0.5319 
     62 CA         36.3232  -49.6350  -52.3334 C.3       2 UNK         0.0286 
     63 CB         37.7901  -50.0443  -52.5435 C.3       2 UNK        -0.1963 
     64 N          36.1079  -48.2965  -52.9036 N.am      2 UNK        -0.4790 
     65 C          34.9865  -47.5748  -52.7604 C.2       1 UNK         0.5024 
     66 O          33.9980  -47.9679  -52.1360 O.2       1 UNK        -0.4888 
     67 H67        32.8791  -43.5516  -51.3506 H         1 UNK         0.0892 
     68 H68        33.6823  -44.0027  -49.8473 H         1 UNK         0.0892 
     69 H69        34.3244  -42.6837  -50.8308 H         1 UNK         0.0892 
     70 H70        33.3004  -44.9977  -52.9952 H         1 UNK         0.3107 
     71 H71        35.9472  -45.8916  -53.6940 H         1 UNK         0.0773 
     72 H72        34.7178  -47.2654  -55.4367 H         1 UNK         0.0680 
     73 H73        33.1987  -46.7644  -54.7395 H         1 UNK         0.0680 
     74 H74        32.3203  -46.1259  -56.7652 H         1 UNK         0.0650 
     75 H75        32.8815  -44.9211  -57.8891 H         1 UNK         0.0650 
     76 H76        31.8178  -44.8080  -54.2608 H         1 UNK         0.1397 
     77 H77        29.0907  -41.5715  -54.9251 H         1 UNK         0.1363 
     78 H78        31.2668  -43.2539  -58.2103 H         1 UNK         0.1355 
     79 H79        29.9947  -40.3676  -57.5184 H         1 UNK         0.0707 
     80 H80        29.6048  -41.6172  -58.6725 H         1 UNK         0.0707 
     81 H81        27.6555  -43.0743  -58.5735 H         1 UNK         0.1034 
     82 H82        26.1322  -42.2512  -58.6991 H         1 UNK         0.1034 
     83 H83        27.0645  -43.5250  -56.0788 H         1 UNK         0.0482 
     84 H84        25.5158  -41.0140  -56.4155 H         1 UNK         0.3460 
     85 H85        23.9873  -41.3260  -55.6189 H         1 UNK         0.3460 
     86 H86        26.6336  -45.5628  -56.7509 H         1 UNK         0.2989 
     87 H87        24.6559  -47.1659  -57.8010 H         1 UNK         0.0559 
     88 H88        25.3610  -46.8293  -60.7633 H         1 UNK         0.0848 
     89 H89        23.7509  -46.8127  -60.0620 H         1 UNK         0.0848 
     90 H90        24.6947  -48.2927  -60.0388 H         1 UNK         0.0848 
     91 H91        26.6192  -48.0842  -57.4861 H         1 UNK         0.3144 
     92 H92        29.4333  -48.6892  -59.3084 H         1 UNK         0.0727 
     93 H93        30.8702  -47.8331  -57.4498 H         1 UNK         0.0790 
     94 H94        29.5934  -46.7137  -56.9687 H         1 UNK         0.0790 
     95 H95        30.3772  -46.5358  -58.5309 H         1 UNK         0.0790 
     96 H96        28.8788  -49.0711  -56.5124 H         1 UNK         0.3215 
     97 H97        26.6575  -51.8367  -56.9061 H         1 UNK         0.0863 
     98 H98        29.5275  -51.6175  -55.8683 H         1 UNK         0.0808 
     99 H99        28.9186  -52.8403  -56.9711 H         1 UNK         0.0808 
    100 H100       28.3418  -52.7986  -55.3112 H         1 UNK         0.0808 
    101 H101       27.7437  -50.3060  -54.6852 H         1 UNK         0.3118 
    102 H102       24.9574  -48.0950  -54.4163 H         1 UNK         0.0546 
    103 H103       24.8543  -49.0734  -52.1414 H         1 UNK         0.0828 
    104 H104       25.8012  -50.4674  -52.6628 H         1 UNK         0.0828 
    105 H105       24.1896  -50.1997  -53.3114 H         1 UNK         0.0828 
    106 H106       27.2912  -48.4721  -52.8063 H         1 UNK         0.3005 
    107 H107       29.4462  -46.3013  -54.5781 H         1 UNK         0.1257 
    108 H108       27.8405  -45.7397  -52.0282 H         1 UNK         0.0775 
    109 H109       27.9781  -44.6748  -53.4030 H         1 UNK         0.0775 
    110 H110       29.1609  -42.5723  -52.7652 H         1 UNK         0.0840 
    111 H111       30.8773  -42.5083  -52.4629 H         1 UNK         0.0840 
    112 H112       29.7895  -47.4931  -52.0699 H         1 UNK         0.2987 
    113 H113       31.3116  -49.0222  -51.8282 H         1 UNK         0.0785 
    114 H114       30.7289  -51.4433  -51.4201 H         1 UNK         0.0798 
    115 H115       29.3318  -50.3791  -51.4166 H         1 UNK         0.0798 
    116 H116       29.6443  -51.3944  -52.8108 H         1 UNK         0.0798 
    117 H117       33.0069  -49.5130  -53.1048 H         1 UNK         0.3079 
    118 H118       34.1084  -52.3370  -54.6822 H         1 UNK         0.0794 
    119 H119       33.0202  -51.5150  -56.7747 H         1 UNK         0.0786 
    120 H120       34.7132  -51.0541  -56.7365 H         1 UNK         0.0786 
    121 H121       33.4615  -49.8607  -56.3809 H         1 UNK         0.0786 
    122 H122       35.1487  -49.6482  -54.5948 H         1 UNK         0.3032 
    123 H123       36.1337  -49.5736  -51.2591 H         1 UNK         0.1094 
    124 H124       38.0469  -50.1022  -53.6020 H         1 UNK         0.0794 
    125 H125       38.4718  -49.3379  -52.0692 H         1 UNK         0.0794 
    126 H126       37.9883  -51.0242  -52.1064 H         1 UNK         0.0794 
    127 H127       36.8728  -47.9072  -53.4376 H         1 UNK         0.3016 
@<TRIPOS>BOND
     1    1    2 1    
     2    1   67 1    
     3    1   68 1    
     4    1   69 1    
     5    2    3 2    
     6    2    4 am   BACKBONE|DICT|INTERRES
     7    4    5 1    
     8    4   70 1    
     9    5    6 1    
    10    5   65 1    
    11    5   71 1    
    12    6    7 1    
    13    6   72 1    
    14    6   73 1    
    15    7    8 1    
    16    8    9 1    
    17    8   74 1    
    18    8   75 1    
    19    9   10 ar   
    20    9   14 ar   
    21   10   11 ar   
    22   10   76 1    
    23   11   12 ar   
    24   11   48 1    
    25   12   13 ar   
    26   12   77 1    
    27   13   14 ar   
    28   13   15 1    
    29   14   78 1    
    30   15   16 1    
    31   15   79 1    
    32   15   80 1    
    33   16   17 1    
    34   17   18 1    
    35   17   81 1    
    36   17   82 1    
    37   18   19 1    
    38   18   22 1    
    39   18   83 1    
    40   19   20 am   BACKBONE|DICT|INTERRES
    41   19   21 2    
    42   20   84 1    
    43   20   85 1    
    44   22   23 am   BACKBONE|DICT|INTERRES
    45   22   86 1    
    46   23   24 2    
    47   23   25 1    
    48   25   26 1    
    49   25   27 1    
    50   25   87 1    
    51   26   88 1    
    52   26   89 1    
    53   26   90 1    
    54   27   28 am   BACKBONE|DICT|INTERRES
    55   27   91 1    
    56   28   29 2    
    57   28   30 1    
    58   30   31 1    
    59   30   32 1    
    60   30   92 1    
    61   31   93 1    
    62   31   94 1    
    63   31   95 1    
    64   32   33 am   BACKBONE|DICT|INTERRES
    65   32   96 1    
    66   33   34 2    
    67   33   35 1    
    68   35   36 1    
    69   35   37 1    
    70   35   97 1    
    71   36   98 1    
    72   36   99 1    
    73   36  100 1    
    74   37   38 am   BACKBONE|DICT|INTERRES
    75   37  101 1    
    76   38   39 2    
    77   38   40 1    
    78   40   41 1    
    79   40   42 1    
    80   40  102 1    
    81   41  103 1    
    82   41  104 1    
    83   41  105 1    
    84   42   43 am   BACKBONE|DICT|INTERRES
    85   42  106 1    
    86   43   44 2    
    87   43   45 1    
    88   45   46 1    
    89   45   49 1    
    90   45  107 1    
    91   46   47 1    
    92   46  108 1    
    93   46  109 1    
    94   47   48 1    
    95   48  110 1    
    96   48  111 1    
    97   49   50 am   BACKBONE|DICT|INTERRES
    98   49  112 1    
    99   50   51 2    
   100   50   52 1    
   101   52   53 1    
   102   52   54 1    
   103   52  113 1    
   104   53  114 1    
   105   53  115 1    
   106   53  116 1    
   107   54   55 am   BACKBONE|DICT|INTERRES
   108   54  117 1    
   109   55   56 2    
   110   55   57 1    
   111   57   58 1    
   112   57   59 1    
   113   57  118 1    
   114   58  119 1    
   115   58  120 1    
   116   58  121 1    
   117   59   60 am   BACKBONE|DICT|INTERRES
   118   59  122 1    
   119   60   61 2    
   120   60   62 1    
   121   62   63 1    
   122   62   64 1    
   123   62  123 1    
   124   63  124 1    
   125   63  125 1    
   126   63  126 1    
   127   64   65 am   BACKBONE|DICT|INTERRES
   128   64  127 1    
   129   65   66 2    
@<TRIPOS>SUBSTRUCTURE
     1 UNK         1 GROUP             0       ****    0 ROOT    
