@<TRIPOS>MOLECULE
3R134
127   129    1
SMALL
USER_CHARGES


@<TRIPOS>ATOM
      1 CA         30.2234  -48.4113  -49.3675 C.3       0 UNK        -0.1968 
      2 C          31.6126  -47.8031  -49.2449 C.2       0 UNK         0.4852 
      3 O          32.4484  -48.3247  -48.5050 O.2       0 UNK        -0.5359 
      4 N          31.8711  -46.7089  -49.9721 N.am      1 UNK        -0.4300 
      5 CA         33.1293  -45.9511  -50.0267 C.3       1 UNK         0.0863 
      6 C6         32.8958  -44.4784  -50.4778 C.3       11 UNK        -0.0953 
      7 S7         31.7271  -44.2950  -51.8697 S.3       11 UNK        -0.2369 
      8 C8         32.7793  -43.6418  -53.2036 C.3       11 UNK         0.0226 
      9 C9         32.1255  -43.8071  -54.5719 C.ar      11 UNK        -0.0699 
     10 C10        32.8269  -44.4256  -55.6117 C.ar      11 UNK        -0.0804 
     11 C11        32.2356  -44.5954  -56.8673 C.ar      11 UNK        -0.0871 
     12 C12        30.9261  -44.1564  -57.0762 C.ar      11 UNK        -0.1008 
     13 C13        30.2106  -43.5393  -56.0463 C.ar      11 UNK        -0.0735 
     14 C14        30.8226  -43.3497  -54.8037 C.ar      11 UNK        -0.0945 
     15 C15        28.7572  -43.1399  -56.2557 C.3       11 UNK         0.0169 
     16 S16        28.5514  -41.9545  -57.6246 S.3       11 UNK        -0.2669 
     17 C17        26.7645  -41.5599  -57.5610 C.3       11 UNK        -0.0850 
     18 CA         25.8076  -42.7672  -57.3497 C.3       10 UNK         0.0855 
     19 C          24.3248  -42.2984  -57.2699 C.2       10 UNK         0.5543 
     20 N          23.4272  -42.7724  -58.1255 N.am      10 UNK        -0.7343 
     21 O          23.9820  -41.4923  -56.4085 O.2       10 UNK        -0.5027 
     22 N          26.0556  -43.8421  -58.3273 N.am      10 UNK        -0.4495 
     23 C          25.8211  -45.1408  -58.1027 C.2       10 UNK         0.4903 
     24 O          25.3616  -45.5754  -57.0444 O.2       10 UNK        -0.4860 
     25 CA         26.1307  -46.1124  -59.2555 C.3       9 UNK         0.0227 
     26 CB         27.3600  -45.7013  -60.0938 C.3       9 UNK        -0.1964 
     27 N          26.3401  -47.4522  -58.7087 N.am      9 UNK        -0.4231 
     28 C          25.8476  -48.5894  -59.2126 C.2       9 UNK         0.5014 
     29 O          25.1862  -48.6437  -60.2509 O.2       9 UNK        -0.5270 
     30 CA         26.1373  -49.8992  -58.4538 C.3       8 UNK         0.0284 
     31 CB         27.2106  -50.7266  -59.1812 C.3       8 UNK        -0.1977 
     32 N          26.5332  -49.7170  -57.0532 N.am      8 UNK        -0.4342 
     33 C          25.6828  -49.4068  -56.0630 C.2       8 UNK         0.5039 
     34 O          24.4827  -49.1919  -56.2364 O.2       8 UNK        -0.5547 
     35 CA         26.2544  -49.3461  -54.6390 C.3       7 UNK         0.0281 
     36 CB         26.3966  -50.7620  -54.0557 C.3       7 UNK        -0.1963 
     37 N          27.5572  -48.6833  -54.6166 N.am      7 UNK        -0.4444 
     38 C          27.7736  -47.4288  -54.1965 C.2       7 UNK         0.5104 
     39 O          26.9042  -46.7027  -53.7142 O.2       7 UNK        -0.5100 
     40 CA         29.2125  -46.8914  -54.3233 C.3       6 UNK         0.0396 
     41 CB         29.9713  -47.1285  -53.0110 C.3       6 UNK        -0.1801 
     42 N          29.9650  -47.4956  -55.4255 N.am      6 UNK        -0.4747 
     43 C          29.6333  -47.3818  -56.7213 C.2       6 UNK         0.5012 
     44 O          28.7027  -46.6854  -57.1199 O.2       6 UNK        -0.5003 
     45 CA         30.3852  -48.2589  -57.7444 C.3       5 UNK         0.0782 
     46 C46        31.3358  -47.4433  -58.6568 C.3       11 UNK        -0.0868 
     47 S47        32.9569  -47.0594  -57.9093 S.3       11 UNK        -0.2515 
     48 C48        33.0183  -45.2442  -57.9973 C.3       11 UNK         0.0199 
     49 N          31.0381  -49.4296  -57.1482 N.am      5 UNK        -0.4607 
     50 C          30.4136  -50.4174  -56.4935 C.2       4 UNK         0.5031 
     51 O          29.1892  -50.4784  -56.3674 O.2       4 UNK        -0.5119 
     52 CA         31.2998  -51.4808  -55.8236 C.3       4 UNK         0.0263 
     53 CB         31.4409  -52.7072  -56.7384 C.3       4 UNK        -0.1967 
     54 N          32.6338  -50.9906  -55.4494 N.am      4 UNK        -0.4237 
     55 C          32.8716  -50.0542  -54.5195 C.2       3 UNK         0.4908 
     56 O          31.9886  -49.4740  -53.8846 O.2       3 UNK        -0.5102 
     57 CA         34.3372  -49.6776  -54.2871 C.3       3 UNK         0.0241 
     58 CB         34.7787  -48.5655  -55.2545 C.3       3 UNK        -0.1971 
     59 N          34.5075  -49.2336  -52.9056 N.am      3 UNK        -0.4139 
     60 C          35.6699  -49.2357  -52.2426 C.2       2 UNK         0.5016 
     61 O          36.7327  -49.6016  -52.7500 O.2       2 UNK        -0.5319 
     62 CA         35.6569  -48.7954  -50.7640 C.3       2 UNK         0.0286 
     63 CB         36.9990  -48.1682  -50.3272 C.3       2 UNK        -0.1963 
     64 N          34.5387  -47.9268  -50.3712 N.am      2 UNK        -0.4790 
     65 C          34.2496  -46.6901  -50.8022 C.2       1 UNK         0.5024 
     66 O          34.8399  -46.1378  -51.7310 O.2       1 UNK        -0.4888 
     67 H67        29.5401  -47.7619  -49.9139 H         1 UNK         0.0892 
     68 H68        30.2775  -49.3666  -49.8890 H         1 UNK         0.0892 
     69 H69        29.8015  -48.5858  -48.3781 H         1 UNK         0.0892 
     70 H70        31.1492  -46.3335  -50.5707 H         1 UNK         0.3107 
     71 H71        33.5038  -45.8912  -49.0023 H         1 UNK         0.0773 
     72 H72        33.8349  -43.9674  -50.6982 H         1 UNK         0.0680 
     73 H73        32.4649  -43.9243  -49.6425 H         1 UNK         0.0680 
     74 H74        33.7422  -44.1535  -53.1797 H         1 UNK         0.0650 
     75 H75        32.9790  -42.5854  -53.0212 H         1 UNK         0.0650 
     76 H76        33.8354  -44.7797  -55.4456 H         1 UNK         0.1397 
     77 H77        30.4516  -44.3055  -58.0363 H         1 UNK         0.1363 
     78 H78        30.2734  -42.8776  -54.0008 H         1 UNK         0.1355 
     79 H79        28.1896  -44.0472  -56.4632 H         1 UNK         0.0707 
     80 H80        28.3388  -42.7082  -55.3452 H         1 UNK         0.0707 
     81 H81        26.6232  -40.8282  -56.7630 H         1 UNK         0.1034 
     82 H82        26.5092  -41.0394  -58.4859 H         1 UNK         0.1034 
     83 H83        26.0139  -43.1693  -56.3567 H         1 UNK         0.0482 
     84 H84        23.6974  -43.4376  -58.8316 H         1 UNK         0.3460 
     85 H85        22.4699  -42.4636  -58.0605 H         1 UNK         0.3460 
     86 H86        26.4323  -43.5549  -59.2182 H         1 UNK         0.2989 
     87 H87        25.2518  -46.1126  -59.9030 H         1 UNK         0.0559 
     88 H88        28.2389  -45.5352  -59.4698 H         1 UNK         0.0848 
     89 H89        27.1746  -44.7843  -60.6535 H         1 UNK         0.0848 
     90 H90        27.6137  -46.4692  -60.8248 H         1 UNK         0.0848 
     91 H91        26.8490  -47.4722  -57.8316 H         1 UNK         0.3144 
     92 H92        25.2126  -50.4805  -58.4648 H         1 UNK         0.0727 
     93 H93        27.3788  -51.6828  -58.6850 H         1 UNK         0.0790 
     94 H94        28.1647  -50.2047  -59.2321 H         1 UNK         0.0790 
     95 H95        26.9060  -50.9442  -60.2058 H         1 UNK         0.0790 
     96 H96        27.4971  -49.9459  -56.8183 H         1 UNK         0.3215 
     97 H97        25.5412  -48.7980  -54.0192 H         1 UNK         0.0863 
     98 H98        26.7434  -50.7300  -53.0227 H         1 UNK         0.0808 
     99 H99        27.1010  -51.3694  -54.6258 H         1 UNK         0.0808 
    100 H100       25.4382  -51.2831  -54.0594 H         1 UNK         0.0808 
    101 H101       28.3346  -49.1982  -55.0146 H         1 UNK         0.3118 
    102 H102       29.1594  -45.8168  -54.5055 H         1 UNK         0.0546 
    103 H103       29.5272  -46.5474  -52.2025 H         1 UNK         0.0828 
    104 H104       31.0166  -46.8332  -53.0996 H         1 UNK         0.0828 
    105 H105       29.9477  -48.1774  -52.7129 H         1 UNK         0.0828 
    106 H106       30.7362  -48.0997  -55.1677 H         1 UNK         0.3005 
    107 H107       29.6013  -48.6477  -58.3954 H         1 UNK         0.1257 
    108 H108       30.8511  -46.5301  -59.0063 H         1 UNK         0.0775 
    109 H109       31.5366  -48.0204  -59.5607 H         1 UNK         0.0775 
    110 H110       34.0614  -44.9292  -57.9412 H         1 UNK         0.0840 
    111 H111       32.6558  -44.9044  -58.9688 H         1 UNK         0.0840 
    112 H112       32.0467  -49.4370  -57.1930 H         1 UNK         0.2987 
    113 H113       30.7911  -51.7927  -54.9089 H         1 UNK         0.0785 
    114 H114       30.4620  -53.1042  -57.0119 H         1 UNK         0.0798 
    115 H115       31.9866  -53.5111  -56.2440 H         1 UNK         0.0798 
    116 H116       31.9639  -52.4642  -57.6643 H         1 UNK         0.0798 
    117 H117       33.4182  -51.4090  -55.9295 H         1 UNK         0.3079 
    118 H118       34.9501  -50.5668  -54.4510 H         1 UNK         0.0794 
    119 H119       34.1762  -47.6643  -55.1298 H         1 UNK         0.0786 
    120 H120       34.6841  -48.8889  -56.2913 H         1 UNK         0.0786 
    121 H121       35.8221  -48.2906  -55.1006 H         1 UNK         0.0786 
    122 H122       33.6567  -48.9482  -52.4375 H         1 UNK         0.3032 
    123 H123       35.5300  -49.7166  -50.1929 H         1 UNK         0.1094 
    124 H124       37.2317  -47.2720  -50.9033 H         1 UNK         0.0794 
    125 H125       36.9856  -47.8955  -49.2720 H         1 UNK         0.0794 
    126 H126       37.8252  -48.8667  -50.4660 H         1 UNK         0.0794 
    127 H127       33.9485  -48.2813  -49.6196 H         1 UNK         0.3016 
@<TRIPOS>BOND
     1    1    2 1    
     2    1   67 1    
     3    1   68 1    
     4    1   69 1    
     5    2    3 2    
     6    2    4 am   BACKBONE|DICT|INTERRES
     7    4    5 1    
     8    4   70 1    
     9    5    6 1    
    10    5   65 1    
    11    5   71 1    
    12    6    7 1    
    13    6   72 1    
    14    6   73 1    
    15    7    8 1    
    16    8    9 1    
    17    8   74 1    
    18    8   75 1    
    19    9   10 ar   
    20    9   14 ar   
    21   10   11 ar   
    22   10   76 1    
    23   11   12 ar   
    24   11   48 1    
    25   12   13 ar   
    26   12   77 1    
    27   13   14 ar   
    28   13   15 1    
    29   14   78 1    
    30   15   16 1    
    31   15   79 1    
    32   15   80 1    
    33   16   17 1    
    34   17   18 1    
    35   17   81 1    
    36   17   82 1    
    37   18   19 1    
    38   18   22 1    
    39   18   83 1    
    40   19   20 am   BACKBONE|DICT|INTERRES
    41   19   21 2    
    42   20   84 1    
    43   20   85 1    
    44   22   23 am   BACKBONE|DICT|INTERRES
    45   22   86 1    
    46   23   24 2    
    47   23   25 1    
    48   25   26 1    
    49   25   27 1    
    50   25   87 1    
    51   26   88 1    
    52   26   89 1    
    53   26   90 1    
    54   27   28 am   BACKBONE|DICT|INTERRES
    55   27   91 1    
    56   28   29 2    
    57   28   30 1    
    58   30   31 1    
    59   30   32 1    
    60   30   92 1    
    61   31   93 1    
    62   31   94 1    
    63   31   95 1    
    64   32   33 am   BACKBONE|DICT|INTERRES
    65   32   96 1    
    66   33   34 2    
    67   33   35 1    
    68   35   36 1    
    69   35   37 1    
    70   35   97 1    
    71   36   98 1    
    72   36   99 1    
    73   36  100 1    
    74   37   38 am   BACKBONE|DICT|INTERRES
    75   37  101 1    
    76   38   39 2    
    77   38   40 1    
    78   40   41 1    
    79   40   42 1    
    80   40  102 1    
    81   41  103 1    
    82   41  104 1    
    83   41  105 1    
    84   42   43 am   BACKBONE|DICT|INTERRES
    85   42  106 1    
    86   43   44 2    
    87   43   45 1    
    88   45   46 1    
    89   45   49 1    
    90   45  107 1    
    91   46   47 1    
    92   46  108 1    
    93   46  109 1    
    94   47   48 1    
    95   48  110 1    
    96   48  111 1    
    97   49   50 am   BACKBONE|DICT|INTERRES
    98   49  112 1    
    99   50   51 2    
   100   50   52 1    
   101   52   53 1    
   102   52   54 1    
   103   52  113 1    
   104   53  114 1    
   105   53  115 1    
   106   53  116 1    
   107   54   55 am   BACKBONE|DICT|INTERRES
   108   54  117 1    
   109   55   56 2    
   110   55   57 1    
   111   57   58 1    
   112   57   59 1    
   113   57  118 1    
   114   58  119 1    
   115   58  120 1    
   116   58  121 1    
   117   59   60 am   BACKBONE|DICT|INTERRES
   118   59  122 1    
   119   60   61 2    
   120   60   62 1    
   121   62   63 1    
   122   62   64 1    
   123   62  123 1    
   124   63  124 1    
   125   63  125 1    
   126   63  126 1    
   127   64   65 am   BACKBONE|DICT|INTERRES
   128   64  127 1    
   129   65   66 2    
@<TRIPOS>SUBSTRUCTURE
     1 UNK         1 GROUP             0       ****    0 ROOT    
