@<TRIPOS>MOLECULE
3R134
127   129    1
SMALL
USER_CHARGES


@<TRIPOS>ATOM
      1 CA         38.2273  -42.6516  -49.3191 C.3       0 UNK        -0.1968 
      2 C          37.5696  -43.8015  -50.0675 C.2       0 UNK         0.4852 
      3 O          38.0845  -44.9215  -50.0454 O.2       0 UNK        -0.5359 
      4 N          36.4320  -43.5409  -50.7262 N.am      1 UNK        -0.4300 
      5 CA         35.6476  -44.5190  -51.4862 C.3       1 UNK         0.0863 
      6 C6         34.8024  -43.8242  -52.5844 C.3       11 UNK        -0.0953 
      7 S7         34.1380  -44.9955  -53.8158 S.3       11 UNK        -0.2369 
      8 C8         33.2419  -43.8465  -54.8987 C.3       11 UNK         0.0226 
      9 C9         32.0725  -44.5249  -55.5950 C.ar      11 UNK        -0.0699 
     10 C10        32.2571  -45.1858  -56.8134 C.ar      11 UNK        -0.0804 
     11 C11        31.1671  -45.7452  -57.4884 C.ar      11 UNK        -0.0871 
     12 C12        29.8882  -45.6384  -56.9354 C.ar      11 UNK        -0.1008 
     13 C13        29.6955  -45.0030  -55.7055 C.ar      11 UNK        -0.0735 
     14 C14        30.7922  -44.4514  -55.0379 C.ar      11 UNK        -0.0945 
     15 C15        28.2949  -44.8670  -55.1290 C.3       11 UNK         0.0169 
     16 S16        27.5055  -46.4868  -54.8794 S.3       11 UNK        -0.2669 
     17 C17        25.7469  -46.0092  -54.7837 C.3       11 UNK        -0.0850 
     18 CA         24.9933  -46.3265  -56.1067 C.3       10 UNK         0.0855 
     19 C          23.4399  -46.2749  -55.9697 C.2       10 UNK         0.5543 
     20 N          22.6934  -45.9596  -57.0229 N.am      10 UNK        -0.7343 
     21 O          22.8966  -46.5597  -54.9055 O.2       10 UNK        -0.5027 
     22 N          25.5284  -45.5943  -57.2674 N.am      10 UNK        -0.4495 
     23 C          25.4243  -44.2765  -57.4969 C.2       10 UNK         0.4903 
     24 O          24.9677  -43.4692  -56.6875 O.2       10 UNK        -0.4860 
     25 CA         25.8839  -43.7676  -58.8782 C.3       9 UNK         0.0227 
     26 CB         27.3037  -43.1846  -58.7884 C.3       9 UNK        -0.1964 
     27 N          25.8484  -44.7930  -59.9271 N.am      9 UNK        -0.4231 
     28 C          24.7568  -45.4610  -60.3281 C.2       9 UNK         0.5014 
     29 O          23.6175  -45.2245  -59.9218 O.2       9 UNK        -0.5270 
     30 CA         24.9777  -46.6535  -61.2771 C.3       8 UNK         0.0284 
     31 CB         26.2682  -46.5529  -62.1237 C.3       8 UNK        -0.1977 
     32 N          24.9321  -47.9237  -60.5390 N.am      8 UNK        -0.4342 
     33 C          25.7149  -48.2818  -59.5109 C.2       8 UNK         0.5039 
     34 O          26.6358  -47.5869  -59.0642 O.2       8 UNK        -0.5547 
     35 CA         25.4155  -49.6341  -58.8546 C.3       7 UNK         0.0281 
     36 CB         25.8866  -50.8029  -59.7393 C.3       7 UNK        -0.1963 
     37 N          26.1286  -49.6552  -57.5852 N.am      7 UNK        -0.4444 
     38 C          25.8762  -50.4168  -56.5177 C.2       7 UNK         0.5104 
     39 O          24.9595  -51.2382  -56.4656 O.2       7 UNK        -0.5100 
     40 CA         26.8073  -50.2072  -55.3028 C.3       6 UNK         0.0396 
     41 CB         26.8847  -51.4474  -54.3884 C.3       6 UNK        -0.1801 
     42 N          28.1543  -49.7422  -55.6723 N.am      6 UNK        -0.4747 
     43 C          29.0461  -50.3839  -56.4464 C.2       6 UNK         0.5012 
     44 O          28.8591  -51.5009  -56.9305 O.2       6 UNK        -0.5003 
     45 CA         30.3649  -49.6489  -56.7597 C.3       5 UNK         0.0782 
     46 C46        30.2680  -48.9515  -58.1393 C.3       11 UNK        -0.0868 
     47 S47        31.8409  -48.1772  -58.6484 S.3       11 UNK        -0.2515 
     48 C48        31.3659  -46.4293  -58.8329 C.3       11 UNK         0.0199 
     49 N          30.7990  -48.7360  -55.6930 N.am      5 UNK        -0.4607 
     50 C          31.2096  -49.1389  -54.4841 C.2       4 UNK         0.5031 
     51 O          31.1400  -50.3063  -54.0911 O.2       4 UNK        -0.5119 
     52 CA         31.8003  -48.0594  -53.5609 C.3       4 UNK         0.0263 
     53 CB         30.7021  -47.3849  -52.7259 C.3       4 UNK        -0.1967 
     54 N          32.8025  -48.6242  -52.6542 N.am      4 UNK        -0.4237 
     55 C          33.9964  -49.0989  -53.0318 C.2       3 UNK         0.4908 
     56 O          34.4347  -49.0151  -54.1809 O.2       3 UNK        -0.5102 
     57 CA         34.8452  -49.7564  -51.9279 C.3       3 UNK         0.0241 
     58 CB         36.1497  -50.3740  -52.4670 C.3       3 UNK        -0.1971 
     59 N          35.1776  -48.7813  -50.8908 N.am      3 UNK        -0.4139 
     60 C          34.4100  -48.4719  -49.8370 C.2       2 UNK         0.5016 
     61 O          33.3374  -49.0222  -49.5852 O.2       2 UNK        -0.5319 
     62 CA         34.9064  -47.3170  -48.9506 C.3       2 UNK         0.0286 
     63 CB         35.9220  -47.8191  -47.9120 C.3       2 UNK        -0.1963 
     64 N          35.5107  -46.2511  -49.7550 N.am      2 UNK        -0.4790 
     65 C          34.8169  -45.4145  -50.5381 C.2       1 UNK         0.5024 
     66 O          33.5871  -45.3381  -50.5188 O.2       1 UNK        -0.4888 
     67 H67        39.2360  -42.4872  -49.6969 H         1 UNK         0.0892 
     68 H68        37.6691  -41.7217  -49.4271 H         1 UNK         0.0892 
     69 H69        38.2947  -42.8856  -48.2571 H         1 UNK         0.0892 
     70 H70        36.0406  -42.6105  -50.6814 H         1 UNK         0.3107 
     71 H71        36.3526  -45.1768  -52.0002 H         1 UNK         0.0773 
     72 H72        33.9819  -43.2535  -52.1449 H         1 UNK         0.0680 
     73 H73        35.4192  -43.1039  -53.1245 H         1 UNK         0.0680 
     74 H74        32.8767  -42.9988  -54.3168 H         1 UNK         0.0650 
     75 H75        33.9342  -43.4349  -55.6346 H         1 UNK         0.0650 
     76 H76        33.2472  -45.2490  -57.2444 H         1 UNK         0.1397 
     77 H77        29.0344  -46.0451  -57.4608 H         1 UNK         0.1363 
     78 H78        30.6481  -43.9417  -54.0950 H         1 UNK         0.1355 
     79 H79        27.7023  -44.2606  -55.8120 H         1 UNK         0.0707 
     80 H80        28.3106  -44.3342  -54.1771 H         1 UNK         0.0707 
     81 H81        25.6482  -44.9556  -54.5185 H         1 UNK         0.1034 
     82 H82        25.3142  -46.5675  -53.9518 H         1 UNK         0.1034 
     83 H83        25.1873  -47.3745  -56.3287 H         1 UNK         0.0482 
     84 H84        23.1166  -45.7183  -57.9108 H         1 UNK         0.3460 
     85 H85        21.6908  -45.9408  -56.9252 H         1 UNK         0.3460 
     86 H86        25.9466  -46.1765  -57.9885 H         1 UNK         0.2989 
     87 H87        25.2015  -42.9687  -59.1751 H         1 UNK         0.0559 
     88 H88        27.6071  -42.7283  -59.7307 H         1 UNK         0.0848 
     89 H89        28.0391  -43.9476  -58.5322 H         1 UNK         0.0848 
     90 H90        27.3605  -42.4094  -58.0227 H         1 UNK         0.0848 
     91 H91        26.7400  -45.1110  -60.2791 H         1 UNK         0.3144 
     92 H92        24.1320  -46.6577  -61.9666 H         1 UNK         0.0727 
     93 H93        26.3056  -47.3496  -62.8667 H         1 UNK         0.0790 
     94 H94        27.1749  -46.6287  -61.5228 H         1 UNK         0.0790 
     95 H95        26.3083  -45.6082  -62.6679 H         1 UNK         0.0790 
     96 H96        24.1860  -48.5506  -60.8086 H         1 UNK         0.3215 
     97 H97        24.3420  -49.7077  -58.6683 H         1 UNK         0.0863 
     98 H98        25.6882  -51.7645  -59.2657 H         1 UNK         0.0808 
     99 H99        26.9574  -50.7464  -59.9406 H         1 UNK         0.0808 
    100 H100       25.3716  -50.8054  -60.7006 H         1 UNK         0.0808 
    101 H101       26.8652  -48.9609  -57.5351 H         1 UNK         0.3118 
    102 H102       26.3599  -49.4007  -54.7203 H         1 UNK         0.0546 
    103 H103       27.2526  -52.3233  -54.9231 H         1 UNK         0.0828 
    104 H104       25.9020  -51.7010  -53.9890 H         1 UNK         0.0828 
    105 H105       27.5435  -51.2722  -53.5379 H         1 UNK         0.0828 
    106 H106       28.4044  -48.8214  -55.3338 H         1 UNK         0.3005 
    107 H107       31.1300  -50.4252  -56.8383 H         1 UNK         0.1257 
    108 H108       30.0046  -49.6778  -58.9110 H         1 UNK         0.0775 
    109 H109       29.4645  -48.2140  -58.1458 H         1 UNK         0.0775 
    110 H110       32.1471  -45.9125  -59.3925 H         1 UNK         0.0840 
    111 H111       30.4632  -46.3553  -59.4418 H         1 UNK         0.0840 
    112 H112       30.8890  -47.7619  -55.9505 H         1 UNK         0.2987 
    113 H113       32.2864  -47.3027  -54.1796 H         1 UNK         0.0785 
    114 H114       30.1724  -48.1017  -52.0971 H         1 UNK         0.0798 
    115 H115       31.1173  -46.6094  -52.0812 H         1 UNK         0.0798 
    116 H116       29.9651  -46.9053  -53.3681 H         1 UNK         0.0798 
    117 H117       32.5309  -48.7418  -51.6862 H         1 UNK         0.3079 
    118 H118       34.2503  -50.5634  -51.4940 H         1 UNK         0.0794 
    119 H119       35.9395  -51.1238  -53.2309 H         1 UNK         0.0786 
    120 H120       36.7101  -50.8701  -51.6743 H         1 UNK         0.0786 
    121 H121       36.7995  -49.6223  -52.9171 H         1 UNK         0.0786 
    122 H122       36.0196  -48.2435  -51.0350 H         1 UNK         0.3032 
    123 H123       34.0430  -46.9094  -48.4193 H         1 UNK         0.1094 
    124 H124       35.4885  -48.6058  -47.2928 H         1 UNK         0.0794 
    125 H125       36.8166  -48.2292  -48.3822 H         1 UNK         0.0794 
    126 H126       36.2332  -47.0163  -47.2432 H         1 UNK         0.0794 
    127 H127       36.5241  -46.1782  -49.7682 H         1 UNK         0.3016 
@<TRIPOS>BOND
     1    1    2 1    
     2    1   67 1    
     3    1   68 1    
     4    1   69 1    
     5    2    3 2    
     6    2    4 am   BACKBONE|DICT|INTERRES
     7    4    5 1    
     8    4   70 1    
     9    5    6 1    
    10    5   65 1    
    11    5   71 1    
    12    6    7 1    
    13    6   72 1    
    14    6   73 1    
    15    7    8 1    
    16    8    9 1    
    17    8   74 1    
    18    8   75 1    
    19    9   10 ar   
    20    9   14 ar   
    21   10   11 ar   
    22   10   76 1    
    23   11   12 ar   
    24   11   48 1    
    25   12   13 ar   
    26   12   77 1    
    27   13   14 ar   
    28   13   15 1    
    29   14   78 1    
    30   15   16 1    
    31   15   79 1    
    32   15   80 1    
    33   16   17 1    
    34   17   18 1    
    35   17   81 1    
    36   17   82 1    
    37   18   19 1    
    38   18   22 1    
    39   18   83 1    
    40   19   20 am   BACKBONE|DICT|INTERRES
    41   19   21 2    
    42   20   84 1    
    43   20   85 1    
    44   22   23 am   BACKBONE|DICT|INTERRES
    45   22   86 1    
    46   23   24 2    
    47   23   25 1    
    48   25   26 1    
    49   25   27 1    
    50   25   87 1    
    51   26   88 1    
    52   26   89 1    
    53   26   90 1    
    54   27   28 am   BACKBONE|DICT|INTERRES
    55   27   91 1    
    56   28   29 2    
    57   28   30 1    
    58   30   31 1    
    59   30   32 1    
    60   30   92 1    
    61   31   93 1    
    62   31   94 1    
    63   31   95 1    
    64   32   33 am   BACKBONE|DICT|INTERRES
    65   32   96 1    
    66   33   34 2    
    67   33   35 1    
    68   35   36 1    
    69   35   37 1    
    70   35   97 1    
    71   36   98 1    
    72   36   99 1    
    73   36  100 1    
    74   37   38 am   BACKBONE|DICT|INTERRES
    75   37  101 1    
    76   38   39 2    
    77   38   40 1    
    78   40   41 1    
    79   40   42 1    
    80   40  102 1    
    81   41  103 1    
    82   41  104 1    
    83   41  105 1    
    84   42   43 am   BACKBONE|DICT|INTERRES
    85   42  106 1    
    86   43   44 2    
    87   43   45 1    
    88   45   46 1    
    89   45   49 1    
    90   45  107 1    
    91   46   47 1    
    92   46  108 1    
    93   46  109 1    
    94   47   48 1    
    95   48  110 1    
    96   48  111 1    
    97   49   50 am   BACKBONE|DICT|INTERRES
    98   49  112 1    
    99   50   51 2    
   100   50   52 1    
   101   52   53 1    
   102   52   54 1    
   103   52  113 1    
   104   53  114 1    
   105   53  115 1    
   106   53  116 1    
   107   54   55 am   BACKBONE|DICT|INTERRES
   108   54  117 1    
   109   55   56 2    
   110   55   57 1    
   111   57   58 1    
   112   57   59 1    
   113   57  118 1    
   114   58  119 1    
   115   58  120 1    
   116   58  121 1    
   117   59   60 am   BACKBONE|DICT|INTERRES
   118   59  122 1    
   119   60   61 2    
   120   60   62 1    
   121   62   63 1    
   122   62   64 1    
   123   62  123 1    
   124   63  124 1    
   125   63  125 1    
   126   63  126 1    
   127   64   65 am   BACKBONE|DICT|INTERRES
   128   64  127 1    
   129   65   66 2    
@<TRIPOS>SUBSTRUCTURE
     1 UNK         1 GROUP             0       ****    0 ROOT    
