@<TRIPOS>MOLECULE
3R134
127   129    1
SMALL
USER_CHARGES


@<TRIPOS>ATOM
      1 CA         31.7766  -49.6392  -57.4555 C.3       0 UNK        -0.1968 
      2 C          32.7542  -48.5960  -56.9422 C.2       0 UNK         0.4852 
      3 O          33.8470  -48.4660  -57.4947 O.2       0 UNK        -0.5359 
      4 N          32.3841  -47.8836  -55.8676 N.am      1 UNK        -0.4300 
      5 CA         33.1626  -46.8674  -55.1465 C.3       1 UNK         0.0863 
      6 C6         33.6582  -45.7008  -56.0459 C.3       11 UNK        -0.0953 
      7 S7         34.4275  -44.3351  -55.1117 S.3       11 UNK        -0.2369 
      8 C8         33.3355  -42.9299  -55.5011 C.3       11 UNK         0.0226 
      9 C9         31.9992  -42.9733  -54.7680 C.ar      11 UNK        -0.0699 
     10 C10        31.9517  -43.1606  -53.3831 C.ar      11 UNK        -0.0804 
     11 C11        30.7333  -43.1229  -52.7016 C.ar      11 UNK        -0.0871 
     12 C12        29.5531  -42.8966  -53.4166 C.ar      11 UNK        -0.1008 
     13 C13        29.5785  -42.6990  -54.8012 C.ar      11 UNK        -0.0735 
     14 C14        30.8109  -42.7432  -55.4687 C.ar      11 UNK        -0.0945 
     15 C15        28.2662  -42.3624  -55.5140 C.3       11 UNK         0.0169 
     16 S16        28.2486  -42.6886  -57.3093 S.3       11 UNK        -0.2669 
     17 C17        26.6483  -41.9498  -57.7928 C.3       11 UNK        -0.0850 
     18 CA         25.4594  -42.9560  -57.7699 C.3       10 UNK         0.0855 
     19 C          24.1017  -42.2826  -58.1346 C.2       10 UNK         0.5543 
     20 N          23.1828  -42.9682  -58.8037 N.am      10 UNK        -0.7343 
     21 O          23.8614  -41.1310  -57.7792 O.2       10 UNK        -0.5027 
     22 N          25.7416  -44.2101  -58.4899 N.am      10 UNK        -0.4495 
     23 C          26.0496  -44.3481  -59.7849 C.2       10 UNK         0.4903 
     24 O          26.0665  -43.4170  -60.5916 O.2       10 UNK        -0.4860 
     25 CA         26.4296  -45.7740  -60.2384 C.3       9 UNK         0.0227 
     26 CB         26.8367  -45.8363  -61.7229 C.3       9 UNK        -0.1964 
     27 N          27.5129  -46.3374  -59.4226 N.am      9 UNK        -0.4231 
     28 C          27.3690  -46.8494  -58.1935 C.2       9 UNK         0.5014 
     29 O          26.2849  -46.9142  -57.6065 O.2       9 UNK        -0.5270 
     30 CA         28.6554  -47.2995  -57.4832 C.3       8 UNK         0.0284 
     31 CB         29.3104  -46.1099  -56.7607 C.3       8 UNK        -0.1977 
     32 N          28.3709  -48.3554  -56.5111 N.am      8 UNK        -0.4342 
     33 C          28.1276  -49.6341  -56.8353 C.2       8 UNK         0.5039 
     34 O          28.1922  -50.0631  -57.9883 O.2       8 UNK        -0.5547 
     35 CA         27.7800  -50.6158  -55.7007 C.3       7 UNK         0.0281 
     36 CB         28.9210  -51.6239  -55.4736 C.3       7 UNK        -0.1963 
     37 N          27.4863  -49.9399  -54.4368 N.am      7 UNK        -0.4444 
     38 C          26.2738  -49.5044  -54.0680 C.2       7 UNK         0.5104 
     39 O          25.2522  -49.6750  -54.7334 O.2       7 UNK        -0.5100 
     40 CA         26.1791  -48.7527  -52.7262 C.3       6 UNK         0.0396 
     41 CB         25.6587  -49.6905  -51.6251 C.3       6 UNK        -0.1801 
     42 N          27.4484  -48.1611  -52.2903 N.am      6 UNK        -0.4747 
     43 C          28.0675  -47.1383  -52.8998 C.2       6 UNK         0.5012 
     44 O          27.6227  -46.5711  -53.8952 O.2       6 UNK        -0.5003 
     45 CA         29.4406  -46.7250  -52.3347 C.3       5 UNK         0.0782 
     46 C46        29.2637  -45.6985  -51.1924 C.3       11 UNK        -0.0868 
     47 S47        30.8615  -45.0039  -50.6565 S.3       11 UNK        -0.2515 
     48 C48        30.7048  -43.2698  -51.1864 C.3       11 UNK         0.0199 
     49 N          30.2194  -47.8945  -51.9046 N.am      5 UNK        -0.4607 
     50 C          30.6690  -48.8509  -52.7230 C.2       4 UNK         0.5031 
     51 O          30.5241  -48.8304  -53.9495 O.2       4 UNK        -0.5119 
     52 CA         31.3227  -50.0653  -52.0595 C.3       4 UNK         0.0263 
     53 CB         30.2365  -51.0762  -51.6368 C.3       4 UNK        -0.1967 
     54 N          32.2478  -50.6595  -53.0185 N.am      4 UNK        -0.4237 
     55 C          33.1240  -51.6436  -52.7831 C.2       3 UNK         0.4908 
     56 O          33.2493  -52.2192  -51.7019 O.2       3 UNK        -0.5102 
     57 CA         34.0373  -52.0269  -53.9584 C.3       3 UNK         0.0241 
     58 CB         33.2343  -52.6662  -55.1055 C.3       3 UNK        -0.1971 
     59 N          34.7745  -50.8632  -54.4537 N.am      3 UNK        -0.4139 
     60 C          35.7933  -50.2752  -53.8082 C.2       2 UNK         0.5016 
     61 O          36.3051  -50.7161  -52.7786 O.2       2 UNK        -0.5319 
     62 CA         36.3162  -48.9576  -54.4055 C.3       2 UNK         0.0286 
     63 CB         37.4035  -49.2287  -55.4573 C.3       2 UNK        -0.1963 
     64 N          35.2462  -48.1574  -55.0059 N.am      2 UNK        -0.4790 
     65 C          34.2797  -47.5334  -54.3186 C.2       1 UNK         0.5024 
     66 O          34.2200  -47.5126  -53.0890 O.2       1 UNK        -0.4888 
     67 H67        32.2995  -50.5640  -57.6976 H         1 UNK         0.0892 
     68 H68        31.0146  -49.8684  -56.7143 H         1 UNK         0.0892 
     69 H69        31.2827  -49.2823  -58.3586 H         1 UNK         0.0892 
     70 H70        31.5057  -48.1192  -55.4109 H         1 UNK         0.3107 
     71 H71        32.4638  -46.4357  -54.4271 H         1 UNK         0.0773 
     72 H72        34.3882  -46.0469  -56.7781 H         1 UNK         0.0680 
     73 H73        32.8195  -45.3100  -56.6239 H         1 UNK         0.0680 
     74 H74        33.1915  -42.8814  -56.5817 H         1 UNK         0.0650 
     75 H75        33.8482  -42.0091  -55.2204 H         1 UNK         0.0650 
     76 H76        32.8682  -43.3162  -52.8302 H         1 UNK         0.1397 
     77 H77        28.6105  -42.8433  -52.8888 H         1 UNK         0.1363 
     78 H78        30.8579  -42.5639  -56.5332 H         1 UNK         0.1355 
     79 H79        27.4491  -42.9266  -55.0613 H         1 UNK         0.0707 
     80 H80        28.0526  -41.3065  -55.3436 H         1 UNK         0.0707 
     81 H81        26.4424  -41.0990  -57.1409 H         1 UNK         0.1034 
     82 H82        26.7632  -41.5290  -58.7930 H         1 UNK         0.1034 
     83 H83        25.3329  -43.2624  -56.7311 H         1 UNK         0.0482 
     84 H84        23.3663  -43.9161  -59.0910 H         1 UNK         0.3460 
     85 H85        22.3026  -42.5312  -59.0274 H         1 UNK         0.3460 
     86 H86        25.7583  -45.0525  -57.9224 H         1 UNK         0.2989 
     87 H87        25.5404  -46.3961  -60.1159 H         1 UNK         0.0559 
     88 H88        27.7187  -45.2278  -61.9269 H         1 UNK         0.0848 
     89 H89        26.0334  -45.4707  -62.3642 H         1 UNK         0.0848 
     90 H90        27.0540  -46.8585  -62.0332 H         1 UNK         0.0848 
     91 H91        28.4430  -46.2709  -59.8108 H         1 UNK         0.3144 
     92 H92        29.3565  -47.6887  -58.2241 H         1 UNK         0.0727 
     93 H93        29.7113  -45.3921  -57.4770 H         1 UNK         0.0790 
     94 H94        30.1338  -46.4203  -56.1211 H         1 UNK         0.0790 
     95 H95        28.5957  -45.5733  -56.1354 H         1 UNK         0.0790 
     96 H96        28.2164  -48.0555  -55.5577 H         1 UNK         0.3215 
     97 H97        26.9001  -51.1761  -56.0247 H         1 UNK         0.0863 
     98 H98        29.8234  -51.1437  -55.0969 H         1 UNK         0.0808 
     99 H99        29.1854  -52.1338  -56.4011 H         1 UNK         0.0808 
    100 H100       28.6301  -52.3923  -54.7574 H         1 UNK         0.0808 
    101 H101       28.2756  -49.7288  -53.8431 H         1 UNK         0.3118 
    102 H102       25.4571  -47.9435  -52.8555 H         1 UNK         0.0546 
    103 H103       26.3465  -50.5160  -51.4375 H         1 UNK         0.0828 
    104 H104       24.6980  -50.1253  -51.9050 H         1 UNK         0.0828 
    105 H105       25.5078  -49.1571  -50.6864 H         1 UNK         0.0828 
    106 H106       27.8835  -48.5678  -51.4748 H         1 UNK         0.3005 
    107 H107       29.9836  -46.2404  -53.1505 H         1 UNK         0.1257 
    108 H108       28.7855  -46.1615  -50.3272 H         1 UNK         0.0775 
    109 H109       28.6016  -44.8868  -51.4986 H         1 UNK         0.0775 
    110 H110       29.7912  -42.8415  -50.7706 H         1 UNK         0.0840 
    111 H111       31.5265  -42.6972  -50.7536 H         1 UNK         0.0840 
    112 H112       30.3983  -47.9676  -50.9132 H         1 UNK         0.2987 
    113 H113       31.8886  -49.7339  -51.1864 H         1 UNK         0.0785 
    114 H114       29.5086  -50.6181  -50.9662 H         1 UNK         0.0798 
    115 H115       30.6624  -51.9259  -51.1036 H         1 UNK         0.0798 
    116 H116       29.6902  -51.4655  -52.4963 H         1 UNK         0.0798 
    117 H117       32.2095  -50.2314  -53.9328 H         1 UNK         0.3079 
    118 H118       34.7581  -52.7646  -53.5983 H         1 UNK         0.0794 
    119 H119       32.6873  -53.5423  -54.7540 H         1 UNK         0.0786 
    120 H120       33.8911  -52.9988  -55.9095 H         1 UNK         0.0786 
    121 H121       32.5041  -51.9792  -55.5335 H         1 UNK         0.0786 
    122 H122       34.4492  -50.4357  -55.3075 H         1 UNK         0.3032 
    123 H123       36.7599  -48.3799  -53.5911 H         1 UNK         0.1094 
    124 H124       38.2207  -49.8129  -55.0317 H         1 UNK         0.0794 
    125 H125       37.0132  -49.7855  -56.3103 H         1 UNK         0.0794 
    126 H126       37.8323  -48.2989  -55.8317 H         1 UNK         0.0794 
    127 H127       35.1632  -48.1653  -56.0188 H         1 UNK         0.3016 
@<TRIPOS>BOND
     1    1    2 1    
     2    1   67 1    
     3    1   68 1    
     4    1   69 1    
     5    2    3 2    
     6    2    4 am   BACKBONE|DICT|INTERRES
     7    4    5 1    
     8    4   70 1    
     9    5    6 1    
    10    5   65 1    
    11    5   71 1    
    12    6    7 1    
    13    6   72 1    
    14    6   73 1    
    15    7    8 1    
    16    8    9 1    
    17    8   74 1    
    18    8   75 1    
    19    9   10 ar   
    20    9   14 ar   
    21   10   11 ar   
    22   10   76 1    
    23   11   12 ar   
    24   11   48 1    
    25   12   13 ar   
    26   12   77 1    
    27   13   14 ar   
    28   13   15 1    
    29   14   78 1    
    30   15   16 1    
    31   15   79 1    
    32   15   80 1    
    33   16   17 1    
    34   17   18 1    
    35   17   81 1    
    36   17   82 1    
    37   18   19 1    
    38   18   22 1    
    39   18   83 1    
    40   19   20 am   BACKBONE|DICT|INTERRES
    41   19   21 2    
    42   20   84 1    
    43   20   85 1    
    44   22   23 am   BACKBONE|DICT|INTERRES
    45   22   86 1    
    46   23   24 2    
    47   23   25 1    
    48   25   26 1    
    49   25   27 1    
    50   25   87 1    
    51   26   88 1    
    52   26   89 1    
    53   26   90 1    
    54   27   28 am   BACKBONE|DICT|INTERRES
    55   27   91 1    
    56   28   29 2    
    57   28   30 1    
    58   30   31 1    
    59   30   32 1    
    60   30   92 1    
    61   31   93 1    
    62   31   94 1    
    63   31   95 1    
    64   32   33 am   BACKBONE|DICT|INTERRES
    65   32   96 1    
    66   33   34 2    
    67   33   35 1    
    68   35   36 1    
    69   35   37 1    
    70   35   97 1    
    71   36   98 1    
    72   36   99 1    
    73   36  100 1    
    74   37   38 am   BACKBONE|DICT|INTERRES
    75   37  101 1    
    76   38   39 2    
    77   38   40 1    
    78   40   41 1    
    79   40   42 1    
    80   40  102 1    
    81   41  103 1    
    82   41  104 1    
    83   41  105 1    
    84   42   43 am   BACKBONE|DICT|INTERRES
    85   42  106 1    
    86   43   44 2    
    87   43   45 1    
    88   45   46 1    
    89   45   49 1    
    90   45  107 1    
    91   46   47 1    
    92   46  108 1    
    93   46  109 1    
    94   47   48 1    
    95   48  110 1    
    96   48  111 1    
    97   49   50 am   BACKBONE|DICT|INTERRES
    98   49  112 1    
    99   50   51 2    
   100   50   52 1    
   101   52   53 1    
   102   52   54 1    
   103   52  113 1    
   104   53  114 1    
   105   53  115 1    
   106   53  116 1    
   107   54   55 am   BACKBONE|DICT|INTERRES
   108   54  117 1    
   109   55   56 2    
   110   55   57 1    
   111   57   58 1    
   112   57   59 1    
   113   57  118 1    
   114   58  119 1    
   115   58  120 1    
   116   58  121 1    
   117   59   60 am   BACKBONE|DICT|INTERRES
   118   59  122 1    
   119   60   61 2    
   120   60   62 1    
   121   62   63 1    
   122   62   64 1    
   123   62  123 1    
   124   63  124 1    
   125   63  125 1    
   126   63  126 1    
   127   64   65 am   BACKBONE|DICT|INTERRES
   128   64  127 1    
   129   65   66 2    
@<TRIPOS>SUBSTRUCTURE
     1 UNK         1 GROUP             0       ****    0 ROOT    
