@<TRIPOS>MOLECULE
3R134
127   129    1
SMALL
USER_CHARGES


@<TRIPOS>ATOM
      1 CA         28.6887  -44.4677  -48.9899 C.3       0 UNK        -0.1968 
      2 C          29.1617  -45.0126  -50.3289 C.2       0 UNK         0.4852 
      3 O          28.3327  -45.3759  -51.1629 O.2       0 UNK        -0.5359 
      4 N          30.4829  -45.0646  -50.5415 N.am      1 UNK        -0.4300 
      5 CA         31.1471  -45.5813  -51.7451 C.3       1 UNK         0.0863 
      6 C6         30.8507  -44.7543  -53.0310 C.3       11 UNK        -0.0953 
      7 S7         31.4206  -43.0294  -52.8285 S.3       11 UNK        -0.2369 
      8 C8         30.7318  -42.1957  -54.3006 C.3       11 UNK         0.0226 
      9 C9         31.2256  -42.7271  -55.6460 C.ar      11 UNK        -0.0699 
     10 C10        32.4624  -43.3683  -55.7887 C.ar      11 UNK        -0.0804 
     11 C11        32.8442  -43.9176  -57.0156 C.ar      11 UNK        -0.0871 
     12 C12        32.0164  -43.7591  -58.1290 C.ar      11 UNK        -0.1008 
     13 C13        30.7949  -43.0945  -58.0098 C.ar      11 UNK        -0.0735 
     14 C14        30.4072  -42.5785  -56.7695 C.ar      11 UNK        -0.0945 
     15 C15        29.8671  -42.9871  -59.2094 C.3       11 UNK         0.0169 
     16 S16        29.0892  -44.5857  -59.6270 S.3       11 UNK        -0.2669 
     17 C17        28.4276  -45.1566  -58.0200 C.3       11 UNK        -0.0850 
     18 CA         27.2396  -44.3048  -57.4930 C.3       10 UNK         0.0855 
     19 C          25.8721  -44.7478  -58.0963 C.2       10 UNK         0.5543 
     20 N          24.9020  -45.1973  -57.3082 N.am      10 UNK        -0.7343 
     21 O          25.6759  -44.6649  -59.3056 O.2       10 UNK        -0.5027 
     22 N          27.2573  -44.2319  -56.0243 N.am      10 UNK        -0.4495 
     23 C          26.7160  -43.2352  -55.3077 C.2       10 UNK         0.4903 
     24 O          26.2860  -42.1972  -55.8128 O.2       10 UNK        -0.4860 
     25 CA         26.6347  -43.4160  -53.7736 C.3       9 UNK         0.0227 
     26 CB         25.4003  -42.7153  -53.1690 C.3       9 UNK        -0.1964 
     27 N          26.6944  -44.8120  -53.3238 N.am      9 UNK        -0.4231 
     28 C          25.8992  -45.8212  -53.6984 C.2       9 UNK         0.5014 
     29 O          24.9280  -45.7041  -54.4500 O.2       9 UNK        -0.5270 
     30 CA         26.2961  -47.2121  -53.1884 C.3       8 UNK         0.0284 
     31 CB         25.3507  -47.6822  -52.0723 C.3       8 UNK        -0.1977 
     32 N          26.2955  -48.1840  -54.2825 N.am      8 UNK        -0.4342 
     33 C          27.1272  -48.1469  -55.3321 C.2       8 UNK         0.5039 
     34 O          28.0350  -47.3201  -55.4657 O.2       8 UNK        -0.5547 
     35 CA         26.8665  -49.1870  -56.4294 C.3       7 UNK         0.0281 
     36 CB         25.9827  -48.5991  -57.5403 C.3       7 UNK        -0.1963 
     37 N          28.1153  -49.6724  -57.0150 N.am      7 UNK        -0.4444 
     38 C          28.8143  -50.7096  -56.5432 C.2       7 UNK         0.5104 
     39 O          28.5204  -51.3242  -55.5174 O.2       7 UNK        -0.5100 
     40 CA         30.0387  -51.1578  -57.3559 C.3       6 UNK         0.0396 
     41 CB         29.7190  -51.3689  -58.8512 C.3       6 UNK        -0.1801 
     42 N          31.2077  -50.2980  -57.1601 N.am      6 UNK        -0.4747 
     43 C          31.3840  -49.0210  -57.5377 C.2       6 UNK         0.5012 
     44 O          30.5283  -48.3712  -58.1398 O.2       6 UNK        -0.5003 
     45 CA         32.7370  -48.3522  -57.1940 C.3       5 UNK         0.0782 
     46 C46        32.5185  -47.0290  -56.4213 C.3       11 UNK        -0.0868 
     47 S47        34.0848  -46.1835  -55.9889 S.3       11 UNK        -0.2515 
     48 C48        34.1125  -44.7517  -57.1214 C.3       11 UNK         0.0199 
     49 N          33.6232  -49.2639  -56.4622 N.am      5 UNK        -0.4607 
     50 C          34.4924  -50.1140  -57.0236 C.2       4 UNK         0.5031 
     51 O          34.6850  -50.1897  -58.2370 O.2       4 UNK        -0.5119 
     52 CA         35.2600  -51.0617  -56.0801 C.3       4 UNK         0.0263 
     53 CB         36.6566  -50.4965  -55.7755 C.3       4 UNK        -0.1967 
     54 N          34.5628  -51.3298  -54.8172 N.am      4 UNK        -0.4237 
     55 C          33.3777  -51.9467  -54.7093 C.2       3 UNK         0.4908 
     56 O          32.7668  -52.4194  -55.6679 O.2       3 UNK        -0.5102 
     57 CA         32.7241  -51.9959  -53.3162 C.3       3 UNK         0.0241 
     58 CB         33.7040  -51.7406  -52.1476 C.3       3 UNK        -0.1971 
     59 N          31.5749  -51.0837  -53.2388 N.am      3 UNK        -0.4139 
     60 C          31.5813  -49.7574  -53.4476 C.2       2 UNK         0.5016 
     61 O          32.5938  -49.1232  -53.7546 O.2       2 UNK        -0.5319 
     62 CA         30.2304  -49.0183  -53.3344 C.3       2 UNK         0.0286 
     63 CB         29.2299  -49.7138  -52.3806 C.3       2 UNK        -0.1963 
     64 N          30.3947  -47.5971  -52.9901 N.am      2 UNK        -0.4790 
     65 C          30.9295  -47.1078  -51.8598 C.2       1 UNK         0.5024 
     66 O          31.2737  -47.8136  -50.9084 O.2       1 UNK        -0.4888 
     67 H67        29.5214  -44.1828  -48.3473 H         1 UNK         0.0892 
     68 H68        28.0982  -45.2200  -48.4680 H         1 UNK         0.0892 
     69 H69        28.0628  -43.5895  -49.1445 H         1 UNK         0.0892 
     70 H70        31.1089  -44.7709  -49.8052 H         1 UNK         0.3107 
     71 H71        32.2162  -45.4791  -51.5508 H         1 UNK         0.0773 
     72 H72        31.3754  -45.1802  -53.8876 H         1 UNK         0.0680 
     73 H73        29.7887  -44.7572  -53.2792 H         1 UNK         0.0680 
     74 H74        29.6449  -42.2655  -54.2514 H         1 UNK         0.0650 
     75 H75        30.9762  -41.1347  -54.2400 H         1 UNK         0.0650 
     76 H76        33.1130  -43.4968  -54.9354 H         1 UNK         0.1397 
     77 H77        32.2966  -44.1905  -59.0805 H         1 UNK         0.1363 
     78 H78        29.4498  -42.0845  -56.6726 H         1 UNK         0.1355 
     79 H79        30.4330  -42.6355  -60.0733 H         1 UNK         0.0707 
     80 H80        29.0924  -42.2396  -59.0340 H         1 UNK         0.0707 
     81 H81        29.2493  -45.1627  -57.3025 H         1 UNK         0.1034 
     82 H82        28.1500  -46.2069  -58.1116 H         1 UNK         0.1034 
     83 H83        27.3844  -43.2839  -57.8469 H         1 UNK         0.0482 
     84 H84        25.0271  -45.2764  -56.3026 H         1 UNK         0.3460 
     85 H85        24.0228  -45.4627  -57.7209 H         1 UNK         0.3460 
     86 H86        27.5615  -45.0722  -55.5480 H         1 UNK         0.2989 
     87 H87        27.5215  -42.9334  -53.3621 H         1 UNK         0.0559 
     88 H88        24.4709  -43.1119  -53.5793 H         1 UNK         0.0848 
     89 H89        25.4151  -41.6440  -53.3731 H         1 UNK         0.0848 
     90 H90        25.3670  -42.8351  -52.0862 H         1 UNK         0.0848 
     91 H91        27.4182  -45.0210  -52.6326 H         1 UNK         0.3144 
     92 H92        27.3098  -47.1627  -52.7884 H         1 UNK         0.0727 
     93 H93        25.6459  -48.6577  -51.6856 H         1 UNK         0.0790 
     94 H94        24.3189  -47.7531  -52.4193 H         1 UNK         0.0790 
     95 H95        25.3666  -46.9843  -51.2339 H         1 UNK         0.0790 
     96 H96        25.5489  -48.8635  -54.2762 H         1 UNK         0.3215 
     97 H97        26.3308  -50.0314  -55.9891 H         1 UNK         0.0863 
     98 H98        25.7197  -49.3571  -58.2782 H         1 UNK         0.0808 
     99 H99        26.4764  -47.7827  -58.0652 H         1 UNK         0.0808 
    100 H100       25.0497  -48.2068  -57.1334 H         1 UNK         0.0808 
    101 H101       28.5252  -49.1271  -57.7639 H         1 UNK         0.3118 
    102 H102       30.3272  -52.1323  -56.9588 H         1 UNK         0.0546 
    103 H103       28.8791  -52.0538  -58.9743 H         1 UNK         0.0828 
    104 H104       30.5692  -51.8053  -59.3753 H         1 UNK         0.0828 
    105 H105       29.4564  -50.4426  -59.3619 H         1 UNK         0.0828 
    106 H106       31.9704  -50.7486  -56.6661 H         1 UNK         0.3005 
    107 H107       33.2013  -48.1002  -58.1501 H         1 UNK         0.1257 
    108 H108       31.9780  -47.2143  -55.4926 H         1 UNK         0.0775 
    109 H109       31.8798  -46.3608  -56.9991 H         1 UNK         0.0775 
    110 H110       34.9749  -44.1266  -56.8864 H         1 UNK         0.0840 
    111 H111       34.2601  -45.1129  -58.1404 H         1 UNK         0.0840 
    112 H112       33.5128  -49.2549  -55.4508 H         1 UNK         0.2987 
    113 H113       35.3800  -52.0135  -56.6019 H         1 UNK         0.0785 
    114 H114       36.5995  -49.5485  -55.2386 H         1 UNK         0.0798 
    115 H115       37.2135  -50.3158  -56.6961 H         1 UNK         0.0798 
    116 H116       37.2446  -51.1903  -55.1744 H         1 UNK         0.0798 
    117 H117       34.9699  -50.9365  -53.9808 H         1 UNK         0.3079 
    118 H118       32.3305  -53.0070  -53.2007 H         1 UNK         0.0794 
    119 H119       34.0973  -50.7234  -52.1442 H         1 UNK         0.0786 
    120 H120       34.5514  -52.4265  -52.1860 H         1 UNK         0.0786 
    121 H121       33.2110  -51.8992  -51.1883 H         1 UNK         0.0786 
    122 H122       30.6867  -51.5225  -53.0397 H         1 UNK         0.3032 
    123 H123       29.8032  -49.0307  -54.3363 H         1 UNK         0.1094 
    124 H124       28.3341  -49.1146  -52.2334 H         1 UNK         0.0794 
    125 H125       28.8990  -50.6721  -52.7820 H         1 UNK         0.0794 
    126 H126       29.6635  -49.8981  -51.3970 H         1 UNK         0.0794 
    127 H127       30.1322  -46.9475  -53.7181 H         1 UNK         0.3016 
@<TRIPOS>BOND
     1    1    2 1    
     2    1   67 1    
     3    1   68 1    
     4    1   69 1    
     5    2    3 2    
     6    2    4 am   BACKBONE|DICT|INTERRES
     7    4    5 1    
     8    4   70 1    
     9    5    6 1    
    10    5   65 1    
    11    5   71 1    
    12    6    7 1    
    13    6   72 1    
    14    6   73 1    
    15    7    8 1    
    16    8    9 1    
    17    8   74 1    
    18    8   75 1    
    19    9   10 ar   
    20    9   14 ar   
    21   10   11 ar   
    22   10   76 1    
    23   11   12 ar   
    24   11   48 1    
    25   12   13 ar   
    26   12   77 1    
    27   13   14 ar   
    28   13   15 1    
    29   14   78 1    
    30   15   16 1    
    31   15   79 1    
    32   15   80 1    
    33   16   17 1    
    34   17   18 1    
    35   17   81 1    
    36   17   82 1    
    37   18   19 1    
    38   18   22 1    
    39   18   83 1    
    40   19   20 am   BACKBONE|DICT|INTERRES
    41   19   21 2    
    42   20   84 1    
    43   20   85 1    
    44   22   23 am   BACKBONE|DICT|INTERRES
    45   22   86 1    
    46   23   24 2    
    47   23   25 1    
    48   25   26 1    
    49   25   27 1    
    50   25   87 1    
    51   26   88 1    
    52   26   89 1    
    53   26   90 1    
    54   27   28 am   BACKBONE|DICT|INTERRES
    55   27   91 1    
    56   28   29 2    
    57   28   30 1    
    58   30   31 1    
    59   30   32 1    
    60   30   92 1    
    61   31   93 1    
    62   31   94 1    
    63   31   95 1    
    64   32   33 am   BACKBONE|DICT|INTERRES
    65   32   96 1    
    66   33   34 2    
    67   33   35 1    
    68   35   36 1    
    69   35   37 1    
    70   35   97 1    
    71   36   98 1    
    72   36   99 1    
    73   36  100 1    
    74   37   38 am   BACKBONE|DICT|INTERRES
    75   37  101 1    
    76   38   39 2    
    77   38   40 1    
    78   40   41 1    
    79   40   42 1    
    80   40  102 1    
    81   41  103 1    
    82   41  104 1    
    83   41  105 1    
    84   42   43 am   BACKBONE|DICT|INTERRES
    85   42  106 1    
    86   43   44 2    
    87   43   45 1    
    88   45   46 1    
    89   45   49 1    
    90   45  107 1    
    91   46   47 1    
    92   46  108 1    
    93   46  109 1    
    94   47   48 1    
    95   48  110 1    
    96   48  111 1    
    97   49   50 am   BACKBONE|DICT|INTERRES
    98   49  112 1    
    99   50   51 2    
   100   50   52 1    
   101   52   53 1    
   102   52   54 1    
   103   52  113 1    
   104   53  114 1    
   105   53  115 1    
   106   53  116 1    
   107   54   55 am   BACKBONE|DICT|INTERRES
   108   54  117 1    
   109   55   56 2    
   110   55   57 1    
   111   57   58 1    
   112   57   59 1    
   113   57  118 1    
   114   58  119 1    
   115   58  120 1    
   116   58  121 1    
   117   59   60 am   BACKBONE|DICT|INTERRES
   118   59  122 1    
   119   60   61 2    
   120   60   62 1    
   121   62   63 1    
   122   62   64 1    
   123   62  123 1    
   124   63  124 1    
   125   63  125 1    
   126   63  126 1    
   127   64   65 am   BACKBONE|DICT|INTERRES
   128   64  127 1    
   129   65   66 2    
@<TRIPOS>SUBSTRUCTURE
     1 UNK         1 GROUP             0       ****    0 ROOT    
