@<TRIPOS>MOLECULE
3R134
127   129    1
SMALL
USER_CHARGES


@<TRIPOS>ATOM
      1 CA         37.9487  -42.9798  -52.4137 C.3       0 UNK        -0.1968 
      2 C          36.9113  -44.0447  -52.7387 C.2       0 UNK         0.4852 
      3 O          36.9795  -44.6586  -53.8047 O.2       0 UNK        -0.5359 
      4 N          35.9484  -44.2624  -51.8332 N.am      1 UNK        -0.4300 
      5 CA         34.9122  -45.2909  -51.9474 C.3       1 UNK         0.0863 
      6 C6         33.7360  -45.0016  -50.9808 C.3       11 UNK        -0.0953 
      7 S7         32.2244  -45.9656  -51.3432 S.3       11 UNK        -0.2369 
      8 C8         30.9402  -44.6608  -51.3344 C.3       11 UNK         0.0226 
      9 C9         30.6349  -44.0319  -52.6965 C.ar      11 UNK        -0.0699 
     10 C10        31.5712  -44.0067  -53.7374 C.ar      11 UNK        -0.0804 
     11 C11        31.2545  -43.4407  -54.9745 C.ar      11 UNK        -0.0871 
     12 C12        30.0067  -42.8456  -55.1571 C.ar      11 UNK        -0.1008 
     13 C13        29.0566  -42.8609  -54.1336 C.ar      11 UNK        -0.0735 
     14 C14        29.3767  -43.4551  -52.9082 C.ar      11 UNK        -0.0945 
     15 C15        27.6865  -42.2367  -54.3569 C.3       11 UNK         0.0169 
     16 S16        26.5419  -43.3921  -55.1773 S.3       11 UNK        -0.2669 
     17 C17        27.2283  -43.4479  -56.8713 C.3       11 UNK        -0.0850 
     18 CA         26.1817  -43.8430  -57.9442 C.3       10 UNK         0.0855 
     19 C          26.7749  -43.7598  -59.3831 C.2       10 UNK         0.5543 
     20 N          26.6758  -44.7898  -60.2167 N.am      10 UNK        -0.7343 
     21 O          27.3264  -42.7281  -59.7580 O.2       10 UNK        -0.5027 
     22 N          25.5497  -45.1324  -57.6334 N.am      10 UNK        -0.4495 
     23 C          24.3113  -45.4810  -57.9985 C.2       10 UNK         0.4903 
     24 O          23.5344  -44.7340  -58.5962 O.2       10 UNK        -0.4860 
     25 CA         23.8835  -46.9136  -57.6364 C.3       9 UNK         0.0227 
     26 CB         22.5866  -47.3580  -58.3464 C.3       9 UNK        -0.1964 
     27 N          24.9568  -47.8933  -57.8423 N.am      9 UNK        -0.4231 
     28 C          25.5644  -48.2161  -58.9959 C.2       9 UNK         0.5014 
     29 O          25.3134  -47.6614  -60.0671 O.2       9 UNK        -0.5270 
     30 CA         26.6428  -49.3239  -58.9705 C.3       8 UNK         0.0284 
     31 CB         27.9137  -48.8801  -59.7173 C.3       8 UNK        -0.1977 
     32 N          27.0167  -49.7686  -57.6248 N.am      8 UNK        -0.4342 
     33 C          26.2765  -50.5401  -56.8171 C.2       8 UNK         0.5039 
     34 O          25.2164  -51.0654  -57.1571 O.2       8 UNK        -0.5547 
     35 CA         26.7637  -50.6969  -55.3648 C.3       7 UNK         0.0281 
     36 CB         27.6024  -51.9746  -55.2128 C.3       7 UNK        -0.1963 
     37 N          27.5251  -49.5409  -54.8728 N.am      7 UNK        -0.4444 
     38 C          27.0433  -48.2937  -54.7538 C.2       7 UNK         0.5104 
     39 O          25.8866  -47.9793  -55.0341 O.2       7 UNK        -0.5100 
     40 CA         28.0266  -47.2083  -54.2872 C.3       6 UNK         0.0396 
     41 CB         28.1754  -47.2286  -52.7593 C.3       6 UNK        -0.1801 
     42 N          29.3405  -47.3467  -54.9192 N.am      6 UNK        -0.4747 
     43 C          29.5881  -47.0647  -56.2077 C.2       6 UNK         0.5012 
     44 O          28.7358  -46.6283  -56.9821 O.2       6 UNK        -0.5003 
     45 CA         31.0021  -47.3999  -56.7376 C.3       5 UNK         0.0782 
     46 C46        32.0456  -46.2974  -56.4322 C.3       11 UNK        -0.0868 
     47 S47        31.7815  -44.7483  -57.3601 S.3       11 UNK        -0.2515 
     48 C48        32.2482  -43.4894  -56.1252 C.3       11 UNK         0.0199 
     49 N          31.4760  -48.6932  -56.2374 N.am      5 UNK        -0.4607 
     50 C          30.9221  -49.8804  -56.5128 C.2       4 UNK         0.5031 
     51 O          29.9564  -50.0297  -57.2592 O.2       4 UNK        -0.5119 
     52 CA         31.5295  -51.1011  -55.7998 C.3       4 UNK         0.0263 
     53 CB         32.7139  -51.6583  -56.6046 C.3       4 UNK        -0.1967 
     54 N          31.9618  -50.8277  -54.4245 N.am      4 UNK        -0.4237 
     55 C          31.1846  -50.3806  -53.4297 C.2       3 UNK         0.4908 
     56 O          29.9905  -50.1196  -53.5700 O.2       3 UNK        -0.5102 
     57 CA         31.8372  -50.1524  -52.0538 C.3       3 UNK         0.0241 
     58 CB         31.8532  -51.4555  -51.2320 C.3       3 UNK        -0.1971 
     59 N          33.1648  -49.5164  -52.0875 N.am      3 UNK        -0.4139 
     60 C          34.3205  -49.9872  -52.5833 C.2       2 UNK         0.5016 
     61 O          34.4308  -51.0842  -53.1333 O.2       2 UNK        -0.5319 
     62 CA         35.5410  -49.0551  -52.4896 C.3       2 UNK         0.0286 
     63 CB         36.5800  -49.3286  -53.5942 C.3       2 UNK        -0.1963 
     64 N          35.1268  -47.6511  -52.5553 N.am      2 UNK        -0.4790 
     65 C          35.5184  -46.6894  -51.7120 C.2       1 UNK         0.5024 
     66 O          36.2959  -46.8696  -50.7716 O.2       1 UNK        -0.4888 
     67 H67        38.9441  -43.4224  -52.3863 H         1 UNK         0.0892 
     68 H68        37.7611  -42.5075  -51.4495 H         1 UNK         0.0892 
     69 H69        37.9416  -42.2033  -53.1782 H         1 UNK         0.0892 
     70 H70        35.9653  -43.7525  -50.9615 H         1 UNK         0.3107 
     71 H71        34.5367  -45.2496  -52.9711 H         1 UNK         0.0773 
     72 H72        33.4859  -43.9410  -51.0349 H         1 UNK         0.0680 
     73 H73        34.0258  -45.1837  -49.9439 H         1 UNK         0.0680 
     74 H74        30.0302  -45.1079  -50.9331 H         1 UNK         0.0650 
     75 H75        31.2142  -43.8736  -50.6313 H         1 UNK         0.0650 
     76 H76        32.5465  -44.4438  -53.6018 H         1 UNK         0.1397 
     77 H77        29.7700  -42.3936  -56.1097 H         1 UNK         0.1363 
     78 H78        28.6408  -43.4690  -52.1157 H         1 UNK         0.1355 
     79 H79        27.2537  -41.9372  -53.4012 H         1 UNK         0.0707 
     80 H80        27.7774  -41.3230  -54.9463 H         1 UNK         0.0707 
     81 H81        28.0713  -44.1396  -56.8851 H         1 UNK         0.1034 
     82 H82        27.6366  -42.4636  -57.1065 H         1 UNK         0.1034 
     83 H83        25.4028  -43.0786  -57.9135 H         1 UNK         0.0482 
     84 H84        26.1955  -45.6374  -59.9448 H         1 UNK         0.3460 
     85 H85        27.0619  -44.7089  -61.1436 H         1 UNK         0.3460 
     86 H86        26.1335  -45.8086  -57.1609 H         1 UNK         0.2989 
     87 H87        23.6837  -46.9067  -56.5640 H         1 UNK         0.0559 
     88 H88        22.3020  -48.3693  -58.0560 H         1 UNK         0.0848 
     89 H89        22.6902  -47.3370  -59.4317 H         1 UNK         0.0848 
     90 H90        21.7549  -46.7016  -58.0877 H         1 UNK         0.0848 
     91 H91        25.2823  -48.3437  -56.9937 H         1 UNK         0.3144 
     92 H92        26.2236  -50.1801  -59.5027 H         1 UNK         0.0727 
     93 H93        28.6618  -49.6729  -59.7341 H         1 UNK         0.0790 
     94 H94        28.3661  -48.0022  -59.2557 H         1 UNK         0.0790 
     95 H95        27.6940  -48.6253  -60.7549 H         1 UNK         0.0790 
     96 H96        27.9177  -49.4525  -57.2817 H         1 UNK         0.3215 
     97 H97        25.8791  -50.7930  -54.7317 H         1 UNK         0.0863 
     98 H98        27.9624  -52.0998  -54.1914 H         1 UNK         0.0808 
     99 H99        28.4649  -51.9671  -55.8778 H         1 UNK         0.0808 
    100 H100       27.0116  -52.8574  -55.4604 H         1 UNK         0.0808 
    101 H101       28.4773  -49.7188  -54.5579 H         1 UNK         0.3118 
    102 H102       27.6151  -46.2370  -54.5700 H         1 UNK         0.0546 
    103 H103       27.2106  -47.0783  -52.2734 H         1 UNK         0.0828 
    104 H104       28.8343  -46.4317  -52.4218 H         1 UNK         0.0828 
    105 H105       28.5796  -48.1741  -52.3973 H         1 UNK         0.0828 
    106 H106       30.0699  -47.7674  -54.3626 H         1 UNK         0.3005 
    107 H107       30.9159  -47.4926  -57.8231 H         1 UNK         0.1257 
    108 H108       33.0423  -46.6496  -56.7031 H         1 UNK         0.0775 
    109 H109       32.0852  -46.1047  -55.3609 H         1 UNK         0.0775 
    110 H110       33.2579  -43.6909  -55.7635 H         1 UNK         0.0840 
    111 H111       32.2880  -42.5137  -56.6117 H         1 UNK         0.0840 
    112 H112       32.2699  -48.6757  -55.6159 H         1 UNK         0.2987 
    113 H113       30.7611  -51.8733  -55.7509 H         1 UNK         0.0785 
    114 H114       33.5393  -50.9470  -56.6555 H         1 UNK         0.0798 
    115 H115       32.4166  -51.8890  -57.6287 H         1 UNK         0.0798 
    116 H116       33.0937  -52.5800  -56.1634 H         1 UNK         0.0798 
    117 H117       32.9303  -51.0361  -54.1873 H         1 UNK         0.3079 
    118 H118       31.1932  -49.4463  -51.5264 H         1 UNK         0.0794 
    119 H119       32.4703  -52.2256  -51.6958 H         1 UNK         0.0786 
    120 H120       30.8467  -51.8646  -51.1333 H         1 UNK         0.0786 
    121 H121       32.2326  -51.2836  -50.2248 H         1 UNK         0.0786 
    122 H122       33.1962  -48.5914  -51.6796 H         1 UNK         0.3032 
    123 H123       36.0057  -49.2682  -51.5241 H         1 UNK         0.1094 
    124 H124       36.1559  -49.1898  -54.5894 H         1 UNK         0.0794 
    125 H125       37.4397  -48.6648  -53.5010 H         1 UNK         0.0794 
    126 H126       36.9562  -50.3510  -53.5375 H         1 UNK         0.0794 
    127 H127       34.4877  -47.4120  -53.3008 H         1 UNK         0.3016 
@<TRIPOS>BOND
     1    1    2 1    
     2    1   67 1    
     3    1   68 1    
     4    1   69 1    
     5    2    3 2    
     6    2    4 am   BACKBONE|DICT|INTERRES
     7    4    5 1    
     8    4   70 1    
     9    5    6 1    
    10    5   65 1    
    11    5   71 1    
    12    6    7 1    
    13    6   72 1    
    14    6   73 1    
    15    7    8 1    
    16    8    9 1    
    17    8   74 1    
    18    8   75 1    
    19    9   10 ar   
    20    9   14 ar   
    21   10   11 ar   
    22   10   76 1    
    23   11   12 ar   
    24   11   48 1    
    25   12   13 ar   
    26   12   77 1    
    27   13   14 ar   
    28   13   15 1    
    29   14   78 1    
    30   15   16 1    
    31   15   79 1    
    32   15   80 1    
    33   16   17 1    
    34   17   18 1    
    35   17   81 1    
    36   17   82 1    
    37   18   19 1    
    38   18   22 1    
    39   18   83 1    
    40   19   20 am   BACKBONE|DICT|INTERRES
    41   19   21 2    
    42   20   84 1    
    43   20   85 1    
    44   22   23 am   BACKBONE|DICT|INTERRES
    45   22   86 1    
    46   23   24 2    
    47   23   25 1    
    48   25   26 1    
    49   25   27 1    
    50   25   87 1    
    51   26   88 1    
    52   26   89 1    
    53   26   90 1    
    54   27   28 am   BACKBONE|DICT|INTERRES
    55   27   91 1    
    56   28   29 2    
    57   28   30 1    
    58   30   31 1    
    59   30   32 1    
    60   30   92 1    
    61   31   93 1    
    62   31   94 1    
    63   31   95 1    
    64   32   33 am   BACKBONE|DICT|INTERRES
    65   32   96 1    
    66   33   34 2    
    67   33   35 1    
    68   35   36 1    
    69   35   37 1    
    70   35   97 1    
    71   36   98 1    
    72   36   99 1    
    73   36  100 1    
    74   37   38 am   BACKBONE|DICT|INTERRES
    75   37  101 1    
    76   38   39 2    
    77   38   40 1    
    78   40   41 1    
    79   40   42 1    
    80   40  102 1    
    81   41  103 1    
    82   41  104 1    
    83   41  105 1    
    84   42   43 am   BACKBONE|DICT|INTERRES
    85   42  106 1    
    86   43   44 2    
    87   43   45 1    
    88   45   46 1    
    89   45   49 1    
    90   45  107 1    
    91   46   47 1    
    92   46  108 1    
    93   46  109 1    
    94   47   48 1    
    95   48  110 1    
    96   48  111 1    
    97   49   50 am   BACKBONE|DICT|INTERRES
    98   49  112 1    
    99   50   51 2    
   100   50   52 1    
   101   52   53 1    
   102   52   54 1    
   103   52  113 1    
   104   53  114 1    
   105   53  115 1    
   106   53  116 1    
   107   54   55 am   BACKBONE|DICT|INTERRES
   108   54  117 1    
   109   55   56 2    
   110   55   57 1    
   111   57   58 1    
   112   57   59 1    
   113   57  118 1    
   114   58  119 1    
   115   58  120 1    
   116   58  121 1    
   117   59   60 am   BACKBONE|DICT|INTERRES
   118   59  122 1    
   119   60   61 2    
   120   60   62 1    
   121   62   63 1    
   122   62   64 1    
   123   62  123 1    
   124   63  124 1    
   125   63  125 1    
   126   63  126 1    
   127   64   65 am   BACKBONE|DICT|INTERRES
   128   64  127 1    
   129   65   66 2    
@<TRIPOS>SUBSTRUCTURE
     1 UNK         1 GROUP             0       ****    0 ROOT    
