@<TRIPOS>MOLECULE
3R134
127   129    1
SMALL
USER_CHARGES


@<TRIPOS>ATOM
      1 CA         36.7204  -47.1193  -55.3324 C.3       0 UNK        -0.1968 
      2 C          36.9242  -46.0605  -54.2508 C.2       0 UNK         0.4852 
      3 O          38.0458  -45.8944  -53.7743 O.2       0 UNK        -0.5359 
      4 N          35.8870  -45.3209  -53.8309 N.am      1 UNK        -0.4300 
      5 CA         34.4912  -45.4244  -54.2735 C.3       1 UNK         0.0863 
      6 C6         33.6698  -44.1702  -53.8936 C.3       11 UNK        -0.0953 
      7 S7         34.0475  -42.6898  -54.8824 S.3       11 UNK        -0.2369 
      8 C8         33.0370  -41.4259  -54.0296 C.3       11 UNK         0.0226 
      9 C9         31.5977  -41.8768  -53.7967 C.ar      11 UNK        -0.0699 
     10 C10        31.2451  -42.4743  -52.5813 C.ar      11 UNK        -0.0804 
     11 C11        29.9517  -42.9595  -52.3716 C.ar      11 UNK        -0.0871 
     12 C12        28.9891  -42.7845  -53.3683 C.ar      11 UNK        -0.1008 
     13 C13        29.3237  -42.1873  -54.5857 C.ar      11 UNK        -0.0735 
     14 C14        30.6305  -41.7329  -54.7973 C.ar      11 UNK        -0.0945 
     15 C15        28.2652  -42.0714  -55.6706 C.3       11 UNK         0.0169 
     16 S16        27.8894  -43.7035  -56.3859 S.3       11 UNK        -0.2669 
     17 C17        29.3493  -43.9773  -57.4463 C.3       11 UNK        -0.0850 
     18 CA         28.9303  -44.3749  -58.8835 C.3       10 UNK         0.0855 
     19 C          30.1438  -44.3100  -59.8543 C.2       10 UNK         0.5543 
     20 N          30.4698  -43.1246  -60.3510 N.am      10 UNK        -0.7343 
     21 O          30.8113  -45.3039  -60.1308 O.2       10 UNK        -0.5027 
     22 N          28.2384  -45.6726  -58.8775 N.am      10 UNK        -0.4495 
     23 C          27.6470  -46.2496  -59.9313 C.2       10 UNK         0.4903 
     24 O          27.5586  -45.7313  -61.0448 O.2       10 UNK        -0.4860 
     25 CA         27.0372  -47.6408  -59.7035 C.3       9 UNK         0.0227 
     26 CB         28.0692  -48.7332  -60.0287 C.3       9 UNK        -0.1964 
     27 N          26.5771  -47.8190  -58.3267 N.am      9 UNK        -0.4231 
     28 C          25.3502  -47.5367  -57.8711 C.2       9 UNK         0.5014 
     29 O          24.4464  -47.0776  -58.5725 O.2       9 UNK        -0.5270 
     30 CA         25.1017  -47.8352  -56.3765 C.3       8 UNK         0.0284 
     31 CB         23.6045  -47.9050  -56.0090 C.3       8 UNK        -0.1977 
     32 N          25.8171  -49.0340  -55.9166 N.am      8 UNK        -0.4342 
     33 C          25.6867  -50.2906  -56.3716 C.2       8 UNK         0.5039 
     34 O          24.8266  -50.6449  -57.1790 O.2       8 UNK        -0.5547 
     35 CA         26.7152  -51.3308  -55.8877 C.3       7 UNK         0.0281 
     36 CB         27.7101  -51.6469  -57.0173 C.3       7 UNK        -0.1963 
     37 N          27.4651  -50.9165  -54.6984 N.am      7 UNK        -0.4444 
     38 C          26.9624  -50.8891  -53.4568 C.2       7 UNK         0.5104 
     39 O          25.8241  -51.2606  -53.1697 O.2       7 UNK        -0.5100 
     40 CA         27.8720  -50.3214  -52.3529 C.3       6 UNK         0.0396 
     41 CB         28.8401  -51.3992  -51.8410 C.3       6 UNK        -0.1801 
     42 N          28.6291  -49.1363  -52.7702 N.am      6 UNK        -0.4747 
     43 C          28.0822  -47.9743  -53.1649 C.2       6 UNK         0.5012 
     44 O          26.8690  -47.7791  -53.2402 O.2       6 UNK        -0.5003 
     45 CA         29.0560  -46.8644  -53.6090 C.3       5 UNK         0.0782 
     46 C46        29.8006  -46.2262  -52.4056 C.3       11 UNK        -0.0868 
     47 S47        28.6918  -45.2464  -51.3302 S.3       11 UNK        -0.2515 
     48 C48        29.6133  -43.6884  -51.0756 C.3       11 UNK         0.0199 
     49 N          29.9886  -47.3833  -54.6099 N.am      5 UNK        -0.4607 
     50 C          29.6625  -47.8427  -55.8248 C.2       4 UNK         0.5031 
     51 O          28.5363  -47.7669  -56.3139 O.2       4 UNK        -0.5119 
     52 CA         30.7754  -48.5317  -56.6274 C.3       4 UNK         0.0263 
     53 CB         31.5384  -47.5086  -57.4793 C.3       4 UNK        -0.1967 
     54 N          31.7138  -49.2640  -55.7749 N.am      4 UNK        -0.4237 
     55 C          31.4257  -50.4035  -55.1322 C.2       3 UNK         0.4908 
     56 O          30.3352  -50.9695  -55.2017 O.2       3 UNK        -0.5102 
     57 CA         32.5321  -50.9984  -54.2439 C.3       3 UNK         0.0241 
     58 CB         33.5398  -51.7911  -55.0916 C.3       3 UNK        -0.1971 
     59 N          33.2412  -49.9911  -53.4486 N.am      3 UNK        -0.4139 
     60 C          32.6785  -49.2872  -52.4569 C.2       2 UNK         0.5016 
     61 O          31.5015  -49.4066  -52.1139 O.2       2 UNK        -0.5319 
     62 CA         33.5640  -48.2374  -51.7577 C.3       2 UNK         0.0286 
     63 CB         34.5849  -48.9207  -50.8329 C.3       2 UNK        -0.1963 
     64 N          34.2607  -47.2717  -52.6268 N.am      2 UNK        -0.4790 
     65 C          33.7544  -46.6534  -53.7061 C.2       1 UNK         0.5024 
     66 O          32.7066  -46.9834  -54.2514 O.2       1 UNK        -0.4888 
     67 H67        36.0881  -47.9302  -54.9740 H         1 UNK         0.0892 
     68 H68        36.2726  -46.6883  -56.2271 H         1 UNK         0.0892 
     69 H69        37.6771  -47.5526  -55.6238 H         1 UNK         0.0892 
     70 H70        36.0616  -44.6093  -53.1357 H         1 UNK         0.3107 
     71 H71        34.4705  -45.5190  -55.3606 H         1 UNK         0.0773 
     72 H72        32.6053  -44.3604  -54.0475 H         1 UNK         0.0680 
     73 H73        33.7933  -43.9362  -52.8346 H         1 UNK         0.0680 
     74 H74        33.5111  -41.1786  -53.0786 H         1 UNK         0.0650 
     75 H75        33.0461  -40.5088  -54.6203 H         1 UNK         0.0650 
     76 H76        31.9942  -42.5971  -51.8111 H         1 UNK         0.1397 
     77 H77        27.9828  -43.1500  -53.2143 H         1 UNK         0.1363 
     78 H78        30.9011  -41.2835  -55.7429 H         1 UNK         0.1355 
     79 H79        28.5733  -41.3785  -56.4552 H         1 UNK         0.0707 
     80 H80        27.3528  -41.6577  -55.2386 H         1 UNK         0.0707 
     81 H81        29.9563  -43.0703  -57.4612 H         1 UNK         0.1034 
     82 H82        29.9761  -44.7475  -56.9929 H         1 UNK         0.1034 
     83 H83        28.2041  -43.6416  -59.2406 H         1 UNK         0.0482 
     84 H84        29.9335  -42.2993  -60.1327 H         1 UNK         0.3460 
     85 H85        31.2607  -43.0566  -60.9723 H         1 UNK         0.3460 
     86 H86        28.2452  -46.1702  -57.9983 H         1 UNK         0.2989 
     87 H87        26.1922  -47.7565  -60.3856 H         1 UNK         0.0559 
     88 H88        28.9489  -48.6638  -59.3879 H         1 UNK         0.0848 
     89 H89        28.4118  -48.6501  -61.0611 H         1 UNK         0.0848 
     90 H90        27.6434  -49.7296  -59.9079 H         1 UNK         0.0848 
     91 H91        27.2725  -48.1007  -57.6392 H         1 UNK         0.3144 
     92 H92        25.5371  -46.9987  -55.8274 H         1 UNK         0.0727 
     93 H93        23.1048  -46.9603  -56.2267 H         1 UNK         0.0790 
     94 H94        23.4676  -48.1062  -54.9465 H         1 UNK         0.0790 
     95 H95        23.0852  -48.6834  -56.5686 H         1 UNK         0.0790 
     96 H96        26.5575  -48.8545  -55.2491 H         1 UNK         0.3215 
     97 H97        26.1671  -52.2447  -55.6484 H         1 UNK         0.0863 
     98 H98        28.4087  -52.4307  -56.7236 H         1 UNK         0.0808 
     99 H99        28.2916  -50.7681  -57.2979 H         1 UNK         0.0808 
    100 H100       27.1917  -51.9943  -57.9120 H         1 UNK         0.0808 
    101 H101       28.4445  -50.6773  -54.8338 H         1 UNK         0.3118 
    102 H102       27.2313  -50.0211  -51.5213 H         1 UNK         0.0546 
    103 H103       29.5393  -51.7151  -52.6158 H         1 UNK         0.0828 
    104 H104       28.2988  -52.2854  -51.5072 H         1 UNK         0.0828 
    105 H105       29.4234  -51.0375  -50.9940 H         1 UNK         0.0828 
    106 H106       29.6428  -49.2075  -52.7180 H         1 UNK         0.3005 
    107 H107       28.4674  -46.0850  -54.0996 H         1 UNK         0.1257 
    108 H108       30.5976  -45.5796  -52.7748 H         1 UNK         0.0775 
    109 H109       30.2966  -46.9850  -51.7985 H         1 UNK         0.0775 
    110 H110       29.0167  -43.0260  -50.4471 H         1 UNK         0.0840 
    111 H111       30.5195  -43.9149  -50.5116 H         1 UNK         0.0840 
    112 H112       30.9691  -47.4183  -54.3398 H         1 UNK         0.2987 
    113 H113       30.3026  -49.2491  -57.3010 H         1 UNK         0.0785 
    114 H114       32.0187  -46.7428  -56.8692 H         1 UNK         0.0798 
    115 H115       30.8585  -47.0022  -58.1630 H         1 UNK         0.0798 
    116 H116       32.3064  -47.9879  -58.0863 H         1 UNK         0.0798 
    117 H117       32.5966  -48.8113  -55.5826 H         1 UNK         0.3079 
    118 H118       32.0537  -51.6937  -53.5503 H         1 UNK         0.0794 
    119 H119       33.0348  -52.5587  -55.6801 H         1 UNK         0.0786 
    120 H120       34.2736  -52.2978  -54.4643 H         1 UNK         0.0786 
    121 H121       34.0796  -51.1487  -55.7886 H         1 UNK         0.0786 
    122 H122       34.2106  -49.8199  -53.6715 H         1 UNK         0.3032 
    123 H123       32.8933  -47.6491  -51.1279 H         1 UNK         0.1094 
    124 H124       35.0898  -48.1957  -50.1943 H         1 UNK         0.0794 
    125 H125       34.0975  -49.6416  -50.1745 H         1 UNK         0.0794 
    126 H126       35.3478  -49.4579  -51.3975 H         1 UNK         0.0794 
    127 H127       35.1376  -46.9191  -52.2701 H         1 UNK         0.3016 
@<TRIPOS>BOND
     1    1    2 1    
     2    1   67 1    
     3    1   68 1    
     4    1   69 1    
     5    2    3 2    
     6    2    4 am   BACKBONE|DICT|INTERRES
     7    4    5 1    
     8    4   70 1    
     9    5    6 1    
    10    5   65 1    
    11    5   71 1    
    12    6    7 1    
    13    6   72 1    
    14    6   73 1    
    15    7    8 1    
    16    8    9 1    
    17    8   74 1    
    18    8   75 1    
    19    9   10 ar   
    20    9   14 ar   
    21   10   11 ar   
    22   10   76 1    
    23   11   12 ar   
    24   11   48 1    
    25   12   13 ar   
    26   12   77 1    
    27   13   14 ar   
    28   13   15 1    
    29   14   78 1    
    30   15   16 1    
    31   15   79 1    
    32   15   80 1    
    33   16   17 1    
    34   17   18 1    
    35   17   81 1    
    36   17   82 1    
    37   18   19 1    
    38   18   22 1    
    39   18   83 1    
    40   19   20 am   BACKBONE|DICT|INTERRES
    41   19   21 2    
    42   20   84 1    
    43   20   85 1    
    44   22   23 am   BACKBONE|DICT|INTERRES
    45   22   86 1    
    46   23   24 2    
    47   23   25 1    
    48   25   26 1    
    49   25   27 1    
    50   25   87 1    
    51   26   88 1    
    52   26   89 1    
    53   26   90 1    
    54   27   28 am   BACKBONE|DICT|INTERRES
    55   27   91 1    
    56   28   29 2    
    57   28   30 1    
    58   30   31 1    
    59   30   32 1    
    60   30   92 1    
    61   31   93 1    
    62   31   94 1    
    63   31   95 1    
    64   32   33 am   BACKBONE|DICT|INTERRES
    65   32   96 1    
    66   33   34 2    
    67   33   35 1    
    68   35   36 1    
    69   35   37 1    
    70   35   97 1    
    71   36   98 1    
    72   36   99 1    
    73   36  100 1    
    74   37   38 am   BACKBONE|DICT|INTERRES
    75   37  101 1    
    76   38   39 2    
    77   38   40 1    
    78   40   41 1    
    79   40   42 1    
    80   40  102 1    
    81   41  103 1    
    82   41  104 1    
    83   41  105 1    
    84   42   43 am   BACKBONE|DICT|INTERRES
    85   42  106 1    
    86   43   44 2    
    87   43   45 1    
    88   45   46 1    
    89   45   49 1    
    90   45  107 1    
    91   46   47 1    
    92   46  108 1    
    93   46  109 1    
    94   47   48 1    
    95   48  110 1    
    96   48  111 1    
    97   49   50 am   BACKBONE|DICT|INTERRES
    98   49  112 1    
    99   50   51 2    
   100   50   52 1    
   101   52   53 1    
   102   52   54 1    
   103   52  113 1    
   104   53  114 1    
   105   53  115 1    
   106   53  116 1    
   107   54   55 am   BACKBONE|DICT|INTERRES
   108   54  117 1    
   109   55   56 2    
   110   55   57 1    
   111   57   58 1    
   112   57   59 1    
   113   57  118 1    
   114   58  119 1    
   115   58  120 1    
   116   58  121 1    
   117   59   60 am   BACKBONE|DICT|INTERRES
   118   59  122 1    
   119   60   61 2    
   120   60   62 1    
   121   62   63 1    
   122   62   64 1    
   123   62  123 1    
   124   63  124 1    
   125   63  125 1    
   126   63  126 1    
   127   64   65 am   BACKBONE|DICT|INTERRES
   128   64  127 1    
   129   65   66 2    
@<TRIPOS>SUBSTRUCTURE
     1 UNK         1 GROUP             0       ****    0 ROOT    
