@<TRIPOS>MOLECULE
3R134
127   129    1
SMALL
USER_CHARGES


@<TRIPOS>ATOM
      1 CA         35.1507  -46.7096  -53.5860 C.3       0 UNK        -0.1968 
      2 C          35.1028  -46.3132  -52.1143 C.2       0 UNK         0.4852 
      3 O          36.1352  -46.3515  -51.4476 O.2       0 UNK        -0.5359 
      4 N          33.9434  -45.9382  -51.5559 N.am      1 UNK        -0.4300 
      5 CA         32.6236  -45.8445  -52.2004 C.3       1 UNK         0.0863 
      6 C6         31.7890  -44.6731  -51.6206 C.3       11 UNK        -0.0953 
      7 S7         32.6198  -43.0581  -51.7974 S.3       11 UNK        -0.2369 
      8 C8         31.3285  -42.0555  -52.6155 C.3       11 UNK         0.0226 
      9 C9         31.0815  -42.3343  -54.1013 C.ar      11 UNK        -0.0699 
     10 C10        31.9069  -43.1602  -54.8766 C.ar      11 UNK        -0.0804 
     11 C11        31.6428  -43.3697  -56.2352 C.ar      11 UNK        -0.0871 
     12 C12        30.5688  -42.7053  -56.8329 C.ar      11 UNK        -0.1008 
     13 C13        29.7466  -41.8622  -56.0815 C.ar      11 UNK        -0.0735 
     14 C14        29.9996  -41.6966  -54.7167 C.ar      11 UNK        -0.0945 
     15 C15        28.6145  -41.0909  -56.7458 C.3       11 UNK         0.0169 
     16 S16        27.1371  -42.1209  -56.9950 S.3       11 UNK        -0.2669 
     17 C17        27.3662  -42.6598  -58.7257 C.3       11 UNK        -0.0850 
     18 CA         26.2482  -43.6232  -59.1994 C.3       10 UNK         0.0855 
     19 C          26.3667  -43.9211  -60.7228 C.2       10 UNK         0.5543 
     20 N          26.5374  -45.1669  -61.1484 N.am      10 UNK        -0.7343 
     21 O          26.2955  -43.0016  -61.5345 O.2       10 UNK        -0.5027 
     22 N          26.1854  -44.8173  -58.3438 N.am      10 UNK        -0.4495 
     23 C          25.1015  -45.5769  -58.1503 C.2       10 UNK         0.4903 
     24 O          24.0211  -45.3905  -58.7109 O.2       10 UNK        -0.4860 
     25 CA         25.2438  -46.7468  -57.1603 C.3       9 UNK         0.0227 
     26 CB         25.4236  -48.0663  -57.9240 C.3       9 UNK        -0.1964 
     27 N          26.3500  -46.5778  -56.2097 N.am      9 UNK        -0.4231 
     28 C          26.3541  -45.6918  -55.2026 C.2       9 UNK         0.5014 
     29 O          25.4079  -44.9429  -54.9485 O.2       9 UNK        -0.5270 
     30 CA         27.6292  -45.6546  -54.3371 C.3       8 UNK         0.0284 
     31 CB         27.5630  -44.6081  -53.2057 C.3       8 UNK        -0.1977 
     32 N          27.9822  -46.9738  -53.8003 N.am      8 UNK        -0.4342 
     33 C          27.2220  -47.8021  -53.0680 C.2       8 UNK         0.5039 
     34 O          26.0797  -47.5466  -52.6813 O.2       8 UNK        -0.5547 
     35 CA         27.8685  -49.1597  -52.7320 C.3       7 UNK         0.0281 
     36 CB         26.9404  -50.1087  -51.9433 C.3       7 UNK        -0.1963 
     37 N          28.4094  -49.8133  -53.9309 N.am      7 UNK        -0.4444 
     38 C          27.7263  -50.2455  -55.0029 C.2       7 UNK         0.5104 
     39 O          26.4989  -50.2181  -55.0995 O.2       7 UNK        -0.5100 
     40 CA         28.5783  -50.7920  -56.1681 C.3       6 UNK         0.0396 
     41 CB         27.7739  -51.0453  -57.4583 C.3       6 UNK        -0.1801 
     42 N          29.7594  -49.9717  -56.4566 N.am      6 UNK        -0.4747 
     43 C          29.8080  -48.6539  -56.7207 C.2       6 UNK         0.5012 
     44 O          28.8063  -47.9407  -56.8129 O.2       6 UNK        -0.5003 
     45 CA         31.2075  -48.0161  -56.8701 C.3       5 UNK         0.0782 
     46 C46        31.2852  -46.6557  -56.1291 C.3       11 UNK        -0.0868 
     47 S47        32.9241  -45.8652  -56.2752 S.3       11 UNK        -0.2515 
     48 C48        32.5331  -44.2767  -57.0802 C.3       11 UNK         0.0199 
     49 N          32.2437  -48.9507  -56.4102 N.am      5 UNK        -0.4607 
     50 C          33.1875  -49.4997  -57.1861 C.2       4 UNK         0.5031 
     51 O          33.3209  -49.2481  -58.3839 O.2       4 UNK        -0.5119 
     52 CA         34.1421  -50.5172  -56.5295 C.3       4 UNK         0.0263 
     53 CB         35.4685  -49.8396  -56.1507 C.3       4 UNK        -0.1967 
     54 N          33.5872  -51.1852  -55.3473 N.am      4 UNK        -0.4237 
     55 C          32.5280  -52.0071  -55.3577 C.2       3 UNK         0.4908 
     56 O          31.9149  -52.3189  -56.3784 O.2       3 UNK        -0.5102 
     57 CA         32.0260  -52.5258  -53.9978 C.3       3 UNK         0.0241 
     58 CB         32.6824  -53.8751  -53.6649 C.3       3 UNK        -0.1971 
     59 N          32.2089  -51.6034  -52.8677 N.am      3 UNK        -0.4139 
     60 C          31.7667  -50.3387  -52.8064 C.2       2 UNK         0.5016 
     61 O          31.2328  -49.7735  -53.7624 O.2       2 UNK        -0.5319 
     62 CA         31.9187  -49.5903  -51.4637 C.3       2 UNK         0.0286 
     63 CB         32.7622  -50.3467  -50.4163 C.3       2 UNK        -0.1963 
     64 N          32.4797  -48.2476  -51.6321 N.am      2 UNK        -0.4790 
     65 C          31.8360  -47.1728  -52.1138 C.2       1 UNK         0.5024 
     66 O          30.6579  -47.1922  -52.4686 O.2       1 UNK        -0.4888 
     67 H67        34.3284  -47.3710  -53.8561 H         1 UNK         0.0892 
     68 H68        35.1093  -45.8204  -54.2142 H         1 UNK         0.0892 
     69 H69        36.0808  -47.2318  -53.8093 H         1 UNK         0.0892 
     70 H70        33.9529  -45.6724  -50.5812 H         1 UNK         0.3107 
     71 H71        32.7556  -45.6464  -53.2635 H         1 UNK         0.0773 
     72 H72        31.5791  -44.8347  -50.5617 H         1 UNK         0.0680 
     73 H73        30.8193  -44.6166  -52.1173 H         1 UNK         0.0680 
     74 H74        30.3948  -42.1757  -52.0637 H         1 UNK         0.0650 
     75 H75        31.6107  -41.0069  -52.5129 H         1 UNK         0.0650 
     76 H76        32.7658  -43.6427  -54.4361 H         1 UNK         0.1397 
     77 H77        30.3840  -42.8302  -57.8900 H         1 UNK         0.1363 
     78 H78        29.3648  -41.0434  -54.1333 H         1 UNK         0.1355 
     79 H79        28.9522  -40.6762  -57.6968 H         1 UNK         0.0707 
     80 H80        28.3349  -40.2343  -56.1306 H         1 UNK         0.0707 
     81 H81        28.3404  -43.1372  -58.8320 H         1 UNK         0.1034 
     82 H82        27.3912  -41.7667  -59.3536 H         1 UNK         0.1034 
     83 H83        25.3005  -43.0933  -59.0838 H         1 UNK         0.0482 
     84 H84        26.6082  -45.3473  -62.1374 H         1 UNK         0.3460 
     85 H85        26.5882  -45.9267  -60.4896 H         1 UNK         0.3460 
     86 H86        27.0268  -45.0473  -57.8378 H         1 UNK         0.2989 
     87 H87        24.3144  -46.8091  -56.5905 H         1 UNK         0.0559 
     88 H88        24.6087  -48.2251  -58.6317 H         1 UNK         0.0848 
     89 H89        25.4263  -48.9168  -57.2428 H         1 UNK         0.0848 
     90 H90        26.3556  -48.0786  -58.4900 H         1 UNK         0.0848 
     91 H91        27.1768  -47.1554  -56.3562 H         1 UNK         0.3144 
     92 H92        28.4441  -45.3631  -55.0019 H         1 UNK         0.0727 
     93 H93        28.4931  -44.5780  -52.6396 H         1 UNK         0.0790 
     94 H94        26.7516  -44.8175  -52.5080 H         1 UNK         0.0790 
     95 H95        27.3986  -43.6087  -53.6112 H         1 UNK         0.0790 
     96 H96        28.9257  -47.2836  -53.9940 H         1 UNK         0.3215 
     97 H97        28.7212  -48.9399  -52.0897 H         1 UNK         0.0863 
     98 H98        27.4393  -51.0495  -51.7116 H         1 UNK         0.0808 
     99 H99        26.0275  -50.3384  -52.4933 H         1 UNK         0.0808 
    100 H100       26.6409  -49.6581  -50.9964 H         1 UNK         0.0808 
    101 H101       29.4276  -49.8462  -53.9801 H         1 UNK         0.3118 
    102 H102       28.9563  -51.7571  -55.8276 H         1 UNK         0.0546 
    103 H103       27.4186  -50.1170  -57.9006 H         1 UNK         0.0828 
    104 H104       26.9039  -51.6748  -57.2677 H         1 UNK         0.0828 
    105 H105       28.3820  -51.5554  -58.2051 H         1 UNK         0.0828 
    106 H106       30.6418  -50.4664  -56.4096 H         1 UNK         0.3005 
    107 H107       31.3270  -47.8192  -57.9377 H         1 UNK         0.1257 
    108 H108       30.5257  -45.9700  -56.5089 H         1 UNK         0.0775 
    109 H109       31.0705  -46.7860  -55.0686 H         1 UNK         0.0775 
    110 H110       33.4661  -43.7518  -57.2888 H         1 UNK         0.0840 
    111 H111       32.0728  -44.4834  -58.0478 H         1 UNK         0.0840 
    112 H112       32.1720  -49.2290  -55.4361 H         1 UNK         0.2987 
    113 H113       34.3536  -51.2872  -57.2747 H         1 UNK         0.0785 
    114 H114       36.1912  -50.5622  -55.7712 H         1 UNK         0.0798 
    115 H115       35.3256  -49.0732  -55.3896 H         1 UNK         0.0798 
    116 H116       35.9213  -49.3559  -57.0175 H         1 UNK         0.0798 
    117 H117       34.0229  -50.9808  -54.4600 H         1 UNK         0.3079 
    118 H118       30.9511  -52.6894  -54.1004 H         1 UNK         0.0794 
    119 H119       32.5427  -54.5895  -54.4777 H         1 UNK         0.0786 
    120 H120       32.2468  -54.3196  -52.7697 H         1 UNK         0.0786 
    121 H121       33.7562  -53.7730  -53.5018 H         1 UNK         0.0786 
    122 H122       32.6424  -51.9909  -52.0420 H         1 UNK         0.3032 
    123 H123       30.9097  -49.4848  -51.0599 H         1 UNK         0.1094 
    124 H124       32.8190  -49.7854  -49.4831 H         1 UNK         0.0794 
    125 H125       32.3218  -51.3134  -50.1675 H         1 UNK         0.0794 
    126 H126       33.7841  -50.5177  -50.7580 H         1 UNK         0.0794 
    127 H127       33.4435  -48.1286  -51.3568 H         1 UNK         0.3016 
@<TRIPOS>BOND
     1    1    2 1    
     2    1   67 1    
     3    1   68 1    
     4    1   69 1    
     5    2    3 2    
     6    2    4 am   BACKBONE|DICT|INTERRES
     7    4    5 1    
     8    4   70 1    
     9    5    6 1    
    10    5   65 1    
    11    5   71 1    
    12    6    7 1    
    13    6   72 1    
    14    6   73 1    
    15    7    8 1    
    16    8    9 1    
    17    8   74 1    
    18    8   75 1    
    19    9   10 ar   
    20    9   14 ar   
    21   10   11 ar   
    22   10   76 1    
    23   11   12 ar   
    24   11   48 1    
    25   12   13 ar   
    26   12   77 1    
    27   13   14 ar   
    28   13   15 1    
    29   14   78 1    
    30   15   16 1    
    31   15   79 1    
    32   15   80 1    
    33   16   17 1    
    34   17   18 1    
    35   17   81 1    
    36   17   82 1    
    37   18   19 1    
    38   18   22 1    
    39   18   83 1    
    40   19   20 am   BACKBONE|DICT|INTERRES
    41   19   21 2    
    42   20   84 1    
    43   20   85 1    
    44   22   23 am   BACKBONE|DICT|INTERRES
    45   22   86 1    
    46   23   24 2    
    47   23   25 1    
    48   25   26 1    
    49   25   27 1    
    50   25   87 1    
    51   26   88 1    
    52   26   89 1    
    53   26   90 1    
    54   27   28 am   BACKBONE|DICT|INTERRES
    55   27   91 1    
    56   28   29 2    
    57   28   30 1    
    58   30   31 1    
    59   30   32 1    
    60   30   92 1    
    61   31   93 1    
    62   31   94 1    
    63   31   95 1    
    64   32   33 am   BACKBONE|DICT|INTERRES
    65   32   96 1    
    66   33   34 2    
    67   33   35 1    
    68   35   36 1    
    69   35   37 1    
    70   35   97 1    
    71   36   98 1    
    72   36   99 1    
    73   36  100 1    
    74   37   38 am   BACKBONE|DICT|INTERRES
    75   37  101 1    
    76   38   39 2    
    77   38   40 1    
    78   40   41 1    
    79   40   42 1    
    80   40  102 1    
    81   41  103 1    
    82   41  104 1    
    83   41  105 1    
    84   42   43 am   BACKBONE|DICT|INTERRES
    85   42  106 1    
    86   43   44 2    
    87   43   45 1    
    88   45   46 1    
    89   45   49 1    
    90   45  107 1    
    91   46   47 1    
    92   46  108 1    
    93   46  109 1    
    94   47   48 1    
    95   48  110 1    
    96   48  111 1    
    97   49   50 am   BACKBONE|DICT|INTERRES
    98   49  112 1    
    99   50   51 2    
   100   50   52 1    
   101   52   53 1    
   102   52   54 1    
   103   52  113 1    
   104   53  114 1    
   105   53  115 1    
   106   53  116 1    
   107   54   55 am   BACKBONE|DICT|INTERRES
   108   54  117 1    
   109   55   56 2    
   110   55   57 1    
   111   57   58 1    
   112   57   59 1    
   113   57  118 1    
   114   58  119 1    
   115   58  120 1    
   116   58  121 1    
   117   59   60 am   BACKBONE|DICT|INTERRES
   118   59  122 1    
   119   60   61 2    
   120   60   62 1    
   121   62   63 1    
   122   62   64 1    
   123   62  123 1    
   124   63  124 1    
   125   63  125 1    
   126   63  126 1    
   127   64   65 am   BACKBONE|DICT|INTERRES
   128   64  127 1    
   129   65   66 2    
@<TRIPOS>SUBSTRUCTURE
     1 UNK         1 GROUP             0       ****    0 ROOT    
