@<TRIPOS>MOLECULE
3R134
127   129    1
SMALL
USER_CHARGES


@<TRIPOS>ATOM
      1 CA         28.1034  -49.9331  -49.8888 C.3       0 UNK        -0.1968 
      2 C          29.1611  -48.8427  -49.8032 C.2       0 UNK         0.4852 
      3 O          29.6483  -48.5439  -48.7114 O.2       0 UNK        -0.5359 
      4 N          29.5182  -48.2487  -50.9475 N.am      1 UNK        -0.4300 
      5 CA         30.5954  -47.2688  -51.0831 C.3       1 UNK         0.0863 
      6 C6         30.4128  -46.4260  -52.3715 C.3       11 UNK        -0.0953 
      7 S7         31.2052  -44.7831  -52.2554 S.3       11 UNK        -0.2369 
      8 C8         30.0779  -43.7388  -53.2403 C.3       11 UNK         0.0226 
      9 C9         30.4791  -43.6595  -54.7092 C.ar      11 UNK        -0.0699 
     10 C10        30.5252  -44.8139  -55.4943 C.ar      11 UNK        -0.0804 
     11 C11        30.8496  -44.7517  -56.8541 C.ar      11 UNK        -0.0871 
     12 C12        31.1474  -43.5111  -57.4236 C.ar      11 UNK        -0.1008 
     13 C13        31.0810  -42.3416  -56.6589 C.ar      11 UNK        -0.0735 
     14 C14        30.7544  -42.4233  -55.3016 C.ar      11 UNK        -0.0945 
     15 C15        31.3549  -40.9868  -57.2965 C.3       11 UNK         0.0169 
     16 S16        29.8214  -40.1811  -57.8694 S.3       11 UNK        -0.2669 
     17 C17        29.3979  -41.1807  -59.3416 C.3       11 UNK        -0.0850 
     18 CA         28.0778  -41.9918  -59.2133 C.3       10 UNK         0.0855 
     19 C          27.8766  -42.8810  -60.4764 C.2       10 UNK         0.5543 
     20 N          27.9587  -44.2027  -60.3786 N.am      10 UNK        -0.7343 
     21 O          27.6471  -42.3569  -61.5635 O.2       10 UNK        -0.5027 
     22 N          27.9709  -42.6976  -57.9242 N.am      10 UNK        -0.4495 
     23 C          26.8577  -43.2669  -57.4486 C.2       10 UNK         0.4903 
     24 O          25.7769  -43.2918  -58.0418 O.2       10 UNK        -0.4860 
     25 CA         26.9615  -43.9002  -56.0615 C.3       9 UNK         0.0227 
     26 CB         26.4766  -42.9382  -54.9636 C.3       9 UNK        -0.1964 
     27 N          26.1791  -45.1310  -56.0497 N.am      9 UNK        -0.4231 
     28 C          26.4775  -46.2108  -55.3213 C.2       9 UNK         0.5014 
     29 O          27.3798  -46.2416  -54.4798 O.2       9 UNK        -0.5270 
     30 CA         25.6311  -47.4671  -55.5750 C.3       8 UNK         0.0284 
     31 CB         25.7420  -47.9586  -57.0336 C.3       8 UNK        -0.1977 
     32 N          26.0875  -48.5087  -54.6619 N.am      8 UNK        -0.4342 
     33 C          25.4351  -49.6186  -54.3121 C.2       8 UNK         0.5039 
     34 O          24.3265  -49.9283  -54.7539 O.2       8 UNK        -0.5547 
     35 CA         26.1513  -50.5342  -53.2993 C.3       7 UNK         0.0281 
     36 CB         25.2879  -51.7328  -52.8632 C.3       7 UNK        -0.1963 
     37 N          27.4282  -51.0352  -53.8167 N.am      7 UNK        -0.4444 
     38 C          28.5735  -50.3428  -53.8656 C.2       7 UNK         0.5104 
     39 O          28.6745  -49.1839  -53.4614 O.2       7 UNK        -0.5100 
     40 CA         29.8247  -51.0544  -54.4144 C.3       6 UNK         0.0396 
     41 CB         29.6784  -52.5870  -54.5503 C.3       6 UNK        -0.1801 
     42 N          30.2942  -50.4648  -55.6712 N.am      6 UNK        -0.4747 
     43 C          29.6259  -50.3785  -56.8351 C.2       6 UNK         0.5012 
     44 O          28.4763  -50.7921  -56.9932 O.2       6 UNK        -0.5003 
     45 CA         30.3673  -49.7599  -58.0467 C.3       5 UNK         0.0782 
     46 C46        29.7109  -48.4601  -58.5822 C.3       11 UNK        -0.0868 
     47 S47        29.4913  -47.1313  -57.3537 S.3       11 UNK        -0.2515 
     48 C48        30.8821  -46.0123  -57.7144 C.3       11 UNK         0.0199 
     49 N          31.8085  -49.5979  -57.8199 N.am      5 UNK        -0.4607 
     50 C          32.6948  -50.6004  -57.8960 C.2       4 UNK         0.5031 
     51 O          32.3916  -51.7522  -58.2083 O.2       4 UNK        -0.5119 
     52 CA         34.1677  -50.2837  -57.5756 C.3       4 UNK         0.0263 
     53 CB         34.9659  -50.1050  -58.8777 C.3       4 UNK        -0.1967 
     54 N          34.3985  -49.1195  -56.7109 N.am      4 UNK        -0.4237 
     55 C          33.9432  -48.9730  -55.4597 C.2       3 UNK         0.4908 
     56 O          33.1472  -49.7449  -54.9187 O.2       3 UNK        -0.5102 
     57 CA         34.4526  -47.7443  -54.6986 C.3       3 UNK         0.0241 
     58 CB         33.7200  -46.4695  -55.1523 C.3       3 UNK        -0.1971 
     59 N          34.2334  -47.9515  -53.2720 N.am      3 UNK        -0.4139 
     60 C          34.9099  -47.3702  -52.2761 C.2       2 UNK         0.5016 
     61 O          35.8526  -46.5955  -52.4524 O.2       2 UNK        -0.5319 
     62 CA         34.4135  -47.6760  -50.8479 C.3       2 UNK         0.0286 
     63 CB         35.2572  -46.9839  -49.7608 C.3       2 UNK        -0.1963 
     64 N          33.0160  -47.2611  -50.6988 N.am      2 UNK        -0.4790 
     65 C          31.9607  -47.9843  -51.0916 C.2       1 UNK         0.5024 
     66 O          32.0554  -49.1381  -51.5200 O.2       1 UNK        -0.4888 
     67 H67        28.1804  -50.4860  -50.8241 H         1 UNK         0.0892 
     68 H68        27.1063  -49.4990  -49.8211 H         1 UNK         0.0892 
     69 H69        28.2222  -50.6450  -49.0723 H         1 UNK         0.0892 
     70 H70        29.1244  -48.5709  -51.8309 H         1 UNK         0.3107 
     71 H71        30.5526  -46.6068  -50.2152 H         1 UNK         0.0773 
     72 H72        29.3488  -46.2720  -52.5565 H         1 UNK         0.0680 
     73 H73        30.7883  -46.9580  -53.2478 H         1 UNK         0.0680 
     74 H74        29.0524  -44.1023  -53.1639 H         1 UNK         0.0650 
     75 H75        30.0761  -42.7419  -52.7975 H         1 UNK         0.0650 
     76 H76        30.2754  -45.7648  -55.0493 H         1 UNK         0.1397 
     77 H77        31.4150  -43.4551  -58.4695 H         1 UNK         0.1363 
     78 H78        30.7016  -41.5189  -54.7108 H         1 UNK         0.1355 
     79 H79        32.0542  -41.0862  -58.1283 H         1 UNK         0.0707 
     80 H80        31.8424  -40.3336  -56.5711 H         1 UNK         0.0707 
     81 H81        30.2312  -41.8397  -59.5859 H         1 UNK         0.1034 
     82 H82        29.3223  -40.4945  -60.1875 H         1 UNK         0.1034 
     83 H83        27.2593  -41.2694  -59.2259 H         1 UNK         0.0482 
     84 H84        28.1386  -44.6373  -59.4883 H         1 UNK         0.3460 
     85 H85        27.8252  -44.7682  -61.2017 H         1 UNK         0.3460 
     86 H86        28.8148  -42.7188  -57.3668 H         1 UNK         0.2989 
     87 H87        28.0058  -44.1450  -55.8821 H         1 UNK         0.0559 
     88 H88        26.5813  -43.3827  -53.9738 H         1 UNK         0.0848 
     89 H89        25.4297  -42.6652  -55.1008 H         1 UNK         0.0848 
     90 H90        27.0608  -42.0170  -54.9681 H         1 UNK         0.0848 
     91 H91        25.4407  -45.1705  -56.7411 H         1 UNK         0.3144 
     92 H92        24.5918  -47.2235  -55.3457 H         1 UNK         0.0727 
     93 H93        25.0908  -48.8139  -57.2138 H         1 UNK         0.0790 
     94 H94        26.7595  -48.2663  -57.2739 H         1 UNK         0.0790 
     95 H95        25.4543  -47.1852  -57.7461 H         1 UNK         0.0790 
     96 H96        26.9966  -48.3155  -54.2430 H         1 UNK         0.3215 
     97 H97        26.3436  -49.9292  -52.4110 H         1 UNK         0.0863 
     98 H98        25.0566  -52.3911  -53.7015 H         1 UNK         0.0808 
     99 H99        24.3398  -51.3976  -52.4404 H         1 UNK         0.0808 
    100 H100       25.7892  -52.3256  -52.0979 H         1 UNK         0.0808 
    101 H101       27.4174  -51.9609  -54.2193 H         1 UNK         0.3118 
    102 H102       30.6149  -50.8688  -53.6849 H         1 UNK         0.0546 
    103 H103       28.9371  -52.8723  -55.2972 H         1 UNK         0.0828 
    104 H104       30.6255  -53.0410  -54.8424 H         1 UNK         0.0828 
    105 H105       29.3894  -53.0416  -53.6016 H         1 UNK         0.0828 
    106 H106       31.2362  -50.0886  -55.6329 H         1 UNK         0.3005 
    107 H107       30.2532  -50.4980  -58.8448 H         1 UNK         0.1257 
    108 H108       28.7208  -48.6944  -58.9774 H         1 UNK         0.0775 
    109 H109       30.2749  -48.0789  -59.4348 H         1 UNK         0.0775 
    110 H110       31.8237  -46.5339  -57.5476 H         1 UNK         0.0840 
    111 H111       30.8504  -45.7488  -58.7728 H         1 UNK         0.0840 
    112 H112       32.1275  -48.6821  -57.5454 H         1 UNK         0.2987 
    113 H113       34.5670  -51.1543  -57.0508 H         1 UNK         0.0785 
    114 H114       34.6394  -49.2250  -59.4335 H         1 UNK         0.0798 
    115 H115       34.8436  -50.9681  -59.5340 H         1 UNK         0.0798 
    116 H116       36.0332  -50.0027  -58.6802 H         1 UNK         0.0798 
    117 H117       35.0303  -48.4194  -57.0734 H         1 UNK         0.3079 
    118 H118       35.5239  -47.6420  -54.8851 H         1 UNK         0.0794 
    119 H119       32.6446  -46.5614  -55.0036 H         1 UNK         0.0786 
    120 H120       33.8939  -46.2635  -56.2086 H         1 UNK         0.0786 
    121 H121       34.0558  -45.5941  -54.5960 H         1 UNK         0.0786 
    122 H122       33.4933  -48.6115  -53.0490 H         1 UNK         0.3032 
    123 H123       34.4950  -48.7553  -50.6977 H         1 UNK         0.1094 
    124 H124       35.2263  -45.8975  -49.8537 H         1 UNK         0.0794 
    125 H125       34.9076  -47.2453  -48.7618 H         1 UNK         0.0794 
    126 H126       36.3029  -47.2878  -49.8261 H         1 UNK         0.0794 
    127 H127       32.8624  -46.3004  -50.4244 H         1 UNK         0.3016 
@<TRIPOS>BOND
     1    1    2 1    
     2    1   67 1    
     3    1   68 1    
     4    1   69 1    
     5    2    3 2    
     6    2    4 am   BACKBONE|DICT|INTERRES
     7    4    5 1    
     8    4   70 1    
     9    5    6 1    
    10    5   65 1    
    11    5   71 1    
    12    6    7 1    
    13    6   72 1    
    14    6   73 1    
    15    7    8 1    
    16    8    9 1    
    17    8   74 1    
    18    8   75 1    
    19    9   10 ar   
    20    9   14 ar   
    21   10   11 ar   
    22   10   76 1    
    23   11   12 ar   
    24   11   48 1    
    25   12   13 ar   
    26   12   77 1    
    27   13   14 ar   
    28   13   15 1    
    29   14   78 1    
    30   15   16 1    
    31   15   79 1    
    32   15   80 1    
    33   16   17 1    
    34   17   18 1    
    35   17   81 1    
    36   17   82 1    
    37   18   19 1    
    38   18   22 1    
    39   18   83 1    
    40   19   20 am   BACKBONE|DICT|INTERRES
    41   19   21 2    
    42   20   84 1    
    43   20   85 1    
    44   22   23 am   BACKBONE|DICT|INTERRES
    45   22   86 1    
    46   23   24 2    
    47   23   25 1    
    48   25   26 1    
    49   25   27 1    
    50   25   87 1    
    51   26   88 1    
    52   26   89 1    
    53   26   90 1    
    54   27   28 am   BACKBONE|DICT|INTERRES
    55   27   91 1    
    56   28   29 2    
    57   28   30 1    
    58   30   31 1    
    59   30   32 1    
    60   30   92 1    
    61   31   93 1    
    62   31   94 1    
    63   31   95 1    
    64   32   33 am   BACKBONE|DICT|INTERRES
    65   32   96 1    
    66   33   34 2    
    67   33   35 1    
    68   35   36 1    
    69   35   37 1    
    70   35   97 1    
    71   36   98 1    
    72   36   99 1    
    73   36  100 1    
    74   37   38 am   BACKBONE|DICT|INTERRES
    75   37  101 1    
    76   38   39 2    
    77   38   40 1    
    78   40   41 1    
    79   40   42 1    
    80   40  102 1    
    81   41  103 1    
    82   41  104 1    
    83   41  105 1    
    84   42   43 am   BACKBONE|DICT|INTERRES
    85   42  106 1    
    86   43   44 2    
    87   43   45 1    
    88   45   46 1    
    89   45   49 1    
    90   45  107 1    
    91   46   47 1    
    92   46  108 1    
    93   46  109 1    
    94   47   48 1    
    95   48  110 1    
    96   48  111 1    
    97   49   50 am   BACKBONE|DICT|INTERRES
    98   49  112 1    
    99   50   51 2    
   100   50   52 1    
   101   52   53 1    
   102   52   54 1    
   103   52  113 1    
   104   53  114 1    
   105   53  115 1    
   106   53  116 1    
   107   54   55 am   BACKBONE|DICT|INTERRES
   108   54  117 1    
   109   55   56 2    
   110   55   57 1    
   111   57   58 1    
   112   57   59 1    
   113   57  118 1    
   114   58  119 1    
   115   58  120 1    
   116   58  121 1    
   117   59   60 am   BACKBONE|DICT|INTERRES
   118   59  122 1    
   119   60   61 2    
   120   60   62 1    
   121   62   63 1    
   122   62   64 1    
   123   62  123 1    
   124   63  124 1    
   125   63  125 1    
   126   63  126 1    
   127   64   65 am   BACKBONE|DICT|INTERRES
   128   64  127 1    
   129   65   66 2    
@<TRIPOS>SUBSTRUCTURE
     1 UNK         1 GROUP             0       ****    0 ROOT    
