@<TRIPOS>MOLECULE
3R134
127   129    1
SMALL
USER_CHARGES


@<TRIPOS>ATOM
      1 CA         30.9664  -44.8321  -47.3244 C.3       0 UNK        -0.1968 
      2 C          32.2183  -45.1547  -48.1271 C.2       0 UNK         0.4852 
      3 O          33.2292  -45.5521  -47.5460 O.2       0 UNK        -0.5359 
      4 N          32.1585  -44.9815  -49.4553 N.am      1 UNK        -0.4300 
      5 CA         33.2525  -45.2678  -50.3916 C.3       1 UNK         0.0863 
      6 C6         32.9638  -44.6543  -51.7857 C.3       11 UNK        -0.0953 
      7 S7         34.4544  -44.5198  -52.8275 S.3       11 UNK        -0.2369 
      8 C8         34.0891  -43.0332  -53.8116 C.3       11 UNK         0.0226 
      9 C9         33.1008  -43.3232  -54.9324 C.ar      11 UNK        -0.0699 
     10 C10        33.5470  -43.9124  -56.1172 C.ar      11 UNK        -0.0804 
     11 C11        32.6587  -44.1583  -57.1667 C.ar      11 UNK        -0.0871 
     12 C12        31.3103  -43.8213  -57.0214 C.ar      11 UNK        -0.1008 
     13 C13        30.8450  -43.2208  -55.8414 C.ar      11 UNK        -0.0735 
     14 C14        31.7518  -42.9802  -54.8023 C.ar      11 UNK        -0.0945 
     15 C15        29.3804  -42.8325  -55.6222 C.3       11 UNK         0.0169 
     16 S16        28.3065  -42.9119  -57.0998 S.3       11 UNK        -0.2669 
     17 C17        26.6567  -42.9337  -56.3188 C.3       11 UNK        -0.0850 
     18 CA         26.2305  -44.3753  -55.9244 C.3       10 UNK         0.0855 
     19 C          24.9518  -44.4376  -55.0452 C.2       10 UNK         0.5543 
     20 N          24.6884  -45.5865  -54.4384 N.am      10 UNK        -0.7343 
     21 O          24.2117  -43.4664  -54.9045 O.2       10 UNK        -0.5027 
     22 N          26.1845  -45.3029  -57.0696 N.am      10 UNK        -0.4495 
     23 C          25.2861  -45.2776  -58.0632 C.2       10 UNK         0.4903 
     24 O          24.3577  -44.4719  -58.1354 O.2       10 UNK        -0.4860 
     25 CA         25.4489  -46.3074  -59.1886 C.3       9 UNK         0.0227 
     26 CB         26.3562  -45.7367  -60.2921 C.3       9 UNK        -0.1964 
     27 N          26.0067  -47.5810  -58.7233 N.am      9 UNK        -0.4231 
     28 C          25.3181  -48.7283  -58.6545 C.2       9 UNK         0.5014 
     29 O          24.1047  -48.8158  -58.8510 O.2       9 UNK        -0.5270 
     30 CA         26.1207  -50.0104  -58.3789 C.3       8 UNK         0.0284 
     31 CB         27.0068  -50.3646  -59.5855 C.3       8 UNK        -0.1977 
     32 N          26.9383  -49.9472  -57.1671 N.am      8 UNK        -0.4342 
     33 C          26.4528  -50.0321  -55.9206 C.2       8 UNK         0.5039 
     34 O          25.2541  -50.1305  -55.6554 O.2       8 UNK        -0.5547 
     35 CA         27.4775  -50.0167  -54.7715 C.3       7 UNK         0.0281 
     36 CB         28.1521  -51.3890  -54.6113 C.3       7 UNK        -0.1963 
     37 N          28.4986  -48.9848  -54.9475 N.am      7 UNK        -0.4444 
     38 C          28.2540  -47.6704  -54.8829 C.2       7 UNK         0.5104 
     39 O          27.1601  -47.1950  -54.5806 O.2       7 UNK        -0.5100 
     40 CA         29.4114  -46.7301  -55.2595 C.3       6 UNK         0.0396 
     41 CB         30.3146  -46.4452  -54.0522 C.3       6 UNK        -0.1801 
     42 N          30.2073  -47.2478  -56.3730 N.am      6 UNK        -0.4747 
     43 C          29.7607  -47.3320  -57.6337 C.2       6 UNK         0.5012 
     44 O          28.6397  -46.9595  -57.9818 O.2       6 UNK        -0.5003 
     45 CA         30.6881  -47.9954  -58.6705 C.3       5 UNK         0.0782 
     46 C46        31.6183  -46.9693  -59.3669 C.3       11 UNK        -0.0868 
     47 S47        33.1420  -46.5733  -58.4328 S.3       11 UNK        -0.2515 
     48 C48        33.1727  -44.7555  -58.4672 C.3       11 UNK         0.0199 
     49 N          31.4273  -49.1326  -58.1154 N.am      5 UNK        -0.4607 
     50 C          30.8759  -50.2722  -57.6818 C.2       4 UNK         0.5031 
     51 O          29.6751  -50.5236  -57.7641 O.2       4 UNK        -0.5119 
     52 CA         31.8168  -51.2666  -56.9799 C.3       4 UNK         0.0263 
     53 CB         32.5510  -52.1380  -58.0108 C.3       4 UNK        -0.1967 
     54 N          32.7912  -50.6083  -56.0994 N.am      4 UNK        -0.4237 
     55 C          32.4579  -49.8588  -55.0396 C.2       3 UNK         0.4908 
     56 O          31.2923  -49.6559  -54.6922 O.2       3 UNK        -0.5102 
     57 CA         33.6094  -49.1697  -54.2896 C.3       3 UNK         0.0241 
     58 CB         34.0504  -47.8972  -55.0338 C.3       3 UNK        -0.1971 
     59 N          33.2090  -48.7966  -52.9334 N.am      3 UNK        -0.4139 
     60 C          33.0626  -49.6448  -51.9074 C.2       2 UNK         0.5016 
     61 O          33.3452  -50.8429  -51.9730 O.2       2 UNK        -0.5319 
     62 CA         32.4844  -49.0706  -50.5943 C.3       2 UNK         0.0286 
     63 CB         33.1414  -49.6937  -49.3438 C.3       2 UNK        -0.1963 
     64 N          32.4856  -47.5998  -50.5075 N.am      2 UNK        -0.4790 
     65 C          33.5518  -46.7811  -50.4867 C.2       1 UNK         0.5024 
     66 O          34.7193  -47.1690  -50.5405 O.2       1 UNK        -0.4888 
     67 H67        30.1516  -44.4844  -47.9591 H         1 UNK         0.0892 
     68 H68        30.6252  -45.7184  -46.7902 H         1 UNK         0.0892 
     69 H69        31.1807  -44.0542  -46.5921 H         1 UNK         0.0892 
     70 H70        31.3034  -44.6353  -49.8669 H         1 UNK         0.3107 
     71 H71        34.1462  -44.7858  -49.9884 H         1 UNK         0.0773 
     72 H72        32.2034  -45.2223  -52.3204 H         1 UNK         0.0680 
     73 H73        32.5541  -43.6509  -51.6607 H         1 UNK         0.0680 
     74 H74        35.0217  -42.6651  -54.2416 H         1 UNK         0.0650 
     75 H75        33.7226  -42.2361  -53.1632 H         1 UNK         0.0650 
     76 H76        34.5912  -44.1740  -56.2238 H         1 UNK         0.1397 
     77 H77        30.6344  -44.0303  -57.8376 H         1 UNK         0.1363 
     78 H78        31.4055  -42.5220  -53.8858 H         1 UNK         0.1355 
     79 H79        29.3347  -41.8164  -55.2272 H         1 UNK         0.0707 
     80 H80        28.9751  -43.4822  -54.8464 H         1 UNK         0.0707 
     81 H81        26.6704  -42.2798  -55.4448 H         1 UNK         0.1034 
     82 H82        25.9342  -42.4965  -57.0097 H         1 UNK         0.1034 
     83 H83        27.0178  -44.7424  -55.2709 H         1 UNK         0.0482 
     84 H84        23.8698  -45.6744  -53.8579 H         1 UNK         0.3460 
     85 H85        25.3511  -46.3518  -54.5155 H         1 UNK         0.3460 
     86 H86        26.9310  -45.9843  -57.1131 H         1 UNK         0.2989 
     87 H87        24.4615  -46.4658  -59.6271 H         1 UNK         0.0559 
     88 H88        27.3604  -45.5238  -59.9229 H         1 UNK         0.0848 
     89 H89        25.9513  -44.8034  -60.6859 H         1 UNK         0.0848 
     90 H90        26.4464  -46.4290  -61.1292 H         1 UNK         0.0848 
     91 H91        27.0003  -47.5785  -58.5024 H         1 UNK         0.3144 
     92 H92        25.4025  -50.8238  -58.2532 H         1 UNK         0.0727 
     93 H93        27.7855  -49.6195  -59.7515 H         1 UNK         0.0790 
     94 H94        26.4156  -50.4293  -60.5000 H         1 UNK         0.0790 
     95 H95        27.4947  -51.3297  -59.4471 H         1 UNK         0.0790 
     96 H96        27.9480  -49.9509  -57.2970 H         1 UNK         0.3215 
     97 H97        26.9365  -49.7976  -53.8482 H         1 UNK         0.0863 
     98 H98        28.8380  -51.3961  -53.7638 H         1 UNK         0.0808 
     99 H99        28.7181  -51.6704  -55.4994 H         1 UNK         0.0808 
    100 H100       27.4102  -52.1691  -54.4364 H         1 UNK         0.0808 
    101 H101       29.4530  -49.2908  -55.1204 H         1 UNK         0.3118 
    102 H102       28.9864  -45.7818  -55.5864 H         1 UNK         0.0546 
    103 H103       31.1604  -45.8206  -54.3378 H         1 UNK         0.0828 
    104 H104       30.7036  -47.3595  -53.6063 H         1 UNK         0.0828 
    105 H105       29.7630  -45.9142  -53.2757 H         1 UNK         0.0828 
    106 H106       31.1211  -47.6165  -56.1563 H         1 UNK         0.3005 
    107 H107       30.0250  -48.3980  -59.4399 H         1 UNK         0.1257 
    108 H108       31.0707  -46.0576  -59.6136 H         1 UNK         0.0775 
    109 H109       31.9375  -47.3785  -60.3266 H         1 UNK         0.0775 
    110 H110       34.2019  -44.4337  -58.6332 H         1 UNK         0.0840 
    111 H111       32.6067  -44.3727  -59.3175 H         1 UNK         0.0840 
    112 H112       32.4218  -48.9958  -58.0064 H         1 UNK         0.2987 
    113 H113       31.1985  -51.9190  -56.3596 H         1 UNK         0.0785 
    114 H114       31.8419  -52.6477  -58.6648 H         1 UNK         0.0798 
    115 H115       33.1503  -52.9081  -57.5245 H         1 UNK         0.0798 
    116 H116       33.2128  -51.5472  -58.6453 H         1 UNK         0.0798 
    117 H117       33.7676  -50.7260  -56.3302 H         1 UNK         0.3079 
    118 H118       34.4537  -49.8597  -54.2281 H         1 UNK         0.0794 
    119 H119       33.2346  -47.1808  -55.1411 H         1 UNK         0.0786 
    120 H120       34.4129  -48.1311  -56.0353 H         1 UNK         0.0786 
    121 H121       34.8638  -47.3942  -54.5100 H         1 UNK         0.0786 
    122 H122       32.9455  -47.8349  -52.7876 H         1 UNK         0.3032 
    123 H123       31.4346  -49.3690  -50.5906 H         1 UNK         0.1094 
    124 H124       34.2158  -49.5102  -49.3156 H         1 UNK         0.0794 
    125 H125       32.7086  -49.2936  -48.4268 H         1 UNK         0.0794 
    126 H126       32.9979  -50.7747  -49.3221 H         1 UNK         0.0794 
    127 H127       31.5720  -47.1716  -50.4467 H         1 UNK         0.3016 
@<TRIPOS>BOND
     1    1    2 1    
     2    1   67 1    
     3    1   68 1    
     4    1   69 1    
     5    2    3 2    
     6    2    4 am   BACKBONE|DICT|INTERRES
     7    4    5 1    
     8    4   70 1    
     9    5    6 1    
    10    5   65 1    
    11    5   71 1    
    12    6    7 1    
    13    6   72 1    
    14    6   73 1    
    15    7    8 1    
    16    8    9 1    
    17    8   74 1    
    18    8   75 1    
    19    9   10 ar   
    20    9   14 ar   
    21   10   11 ar   
    22   10   76 1    
    23   11   12 ar   
    24   11   48 1    
    25   12   13 ar   
    26   12   77 1    
    27   13   14 ar   
    28   13   15 1    
    29   14   78 1    
    30   15   16 1    
    31   15   79 1    
    32   15   80 1    
    33   16   17 1    
    34   17   18 1    
    35   17   81 1    
    36   17   82 1    
    37   18   19 1    
    38   18   22 1    
    39   18   83 1    
    40   19   20 am   BACKBONE|DICT|INTERRES
    41   19   21 2    
    42   20   84 1    
    43   20   85 1    
    44   22   23 am   BACKBONE|DICT|INTERRES
    45   22   86 1    
    46   23   24 2    
    47   23   25 1    
    48   25   26 1    
    49   25   27 1    
    50   25   87 1    
    51   26   88 1    
    52   26   89 1    
    53   26   90 1    
    54   27   28 am   BACKBONE|DICT|INTERRES
    55   27   91 1    
    56   28   29 2    
    57   28   30 1    
    58   30   31 1    
    59   30   32 1    
    60   30   92 1    
    61   31   93 1    
    62   31   94 1    
    63   31   95 1    
    64   32   33 am   BACKBONE|DICT|INTERRES
    65   32   96 1    
    66   33   34 2    
    67   33   35 1    
    68   35   36 1    
    69   35   37 1    
    70   35   97 1    
    71   36   98 1    
    72   36   99 1    
    73   36  100 1    
    74   37   38 am   BACKBONE|DICT|INTERRES
    75   37  101 1    
    76   38   39 2    
    77   38   40 1    
    78   40   41 1    
    79   40   42 1    
    80   40  102 1    
    81   41  103 1    
    82   41  104 1    
    83   41  105 1    
    84   42   43 am   BACKBONE|DICT|INTERRES
    85   42  106 1    
    86   43   44 2    
    87   43   45 1    
    88   45   46 1    
    89   45   49 1    
    90   45  107 1    
    91   46   47 1    
    92   46  108 1    
    93   46  109 1    
    94   47   48 1    
    95   48  110 1    
    96   48  111 1    
    97   49   50 am   BACKBONE|DICT|INTERRES
    98   49  112 1    
    99   50   51 2    
   100   50   52 1    
   101   52   53 1    
   102   52   54 1    
   103   52  113 1    
   104   53  114 1    
   105   53  115 1    
   106   53  116 1    
   107   54   55 am   BACKBONE|DICT|INTERRES
   108   54  117 1    
   109   55   56 2    
   110   55   57 1    
   111   57   58 1    
   112   57   59 1    
   113   57  118 1    
   114   58  119 1    
   115   58  120 1    
   116   58  121 1    
   117   59   60 am   BACKBONE|DICT|INTERRES
   118   59  122 1    
   119   60   61 2    
   120   60   62 1    
   121   62   63 1    
   122   62   64 1    
   123   62  123 1    
   124   63  124 1    
   125   63  125 1    
   126   63  126 1    
   127   64   65 am   BACKBONE|DICT|INTERRES
   128   64  127 1    
   129   65   66 2    
@<TRIPOS>SUBSTRUCTURE
     1 UNK         1 GROUP             0       ****    0 ROOT    
