@<TRIPOS>MOLECULE
3R134
127   129    1
SMALL
USER_CHARGES


@<TRIPOS>ATOM
      1 CA         32.2373  -43.3757  -59.1327 C.3       0 UNK        -0.1968 
      2 C          32.3847  -44.6635  -58.3353 C.2       0 UNK         0.4852 
      3 O          33.5096  -45.0581  -58.0275 O.2       0 UNK        -0.5359 
      4 N          31.2517  -45.2976  -58.0077 N.am      1 UNK        -0.4300 
      5 CA         31.0854  -46.5440  -57.2553 C.3       1 UNK         0.0863 
      6 C6         31.1724  -46.3674  -55.7111 C.3       11 UNK        -0.0953 
      7 S7         32.8463  -46.3210  -54.9667 S.3       11 UNK        -0.2369 
      8 C8         33.0826  -44.5572  -54.5727 C.3       11 UNK         0.0226 
      9 C9         32.0979  -44.0688  -53.5217 C.ar      11 UNK        -0.0699 
     10 C10        32.3109  -44.3386  -52.1669 C.ar      11 UNK        -0.0804 
     11 C11        31.3801  -43.9252  -51.2073 C.ar      11 UNK        -0.0871 
     12 C12        30.2271  -43.2458  -51.6158 C.ar      11 UNK        -0.1008 
     13 C13        30.0152  -42.9553  -52.9670 C.ar      11 UNK        -0.0735 
     14 C14        30.9663  -43.3486  -53.9099 C.ar      11 UNK        -0.0945 
     15 C15        28.7661  -42.2077  -53.4077 C.3       11 UNK         0.0169 
     16 S16        27.3961  -43.3470  -53.7857 S.3       11 UNK        -0.2669 
     17 C17        27.7893  -43.9168  -55.4789 C.3       11 UNK        -0.0850 
     18 CA         26.7615  -43.4098  -56.5379 C.3       10 UNK         0.0855 
     19 C          27.1741  -42.0620  -57.2106 C.2       10 UNK         0.5543 
     20 N          26.8675  -41.8401  -58.4832 N.am      10 UNK        -0.7343 
     21 O          27.7556  -41.1906  -56.5707 O.2       10 UNK        -0.5027 
     22 N          26.3487  -44.4642  -57.4829 N.am      10 UNK        -0.4495 
     23 C          27.1563  -45.1315  -58.3157 C.2       10 UNK         0.4903 
     24 O          28.3792  -44.9864  -58.3614 O.2       10 UNK        -0.4860 
     25 CA         26.4782  -46.1018  -59.2867 C.3       9 UNK         0.0227 
     26 CB         26.7184  -45.6672  -60.7463 C.3       9 UNK        -0.1964 
     27 N          26.9936  -47.4476  -59.0541 N.am      9 UNK        -0.4231 
     28 C          26.4407  -48.5835  -59.4925 C.2       9 UNK         0.5014 
     29 O          25.3989  -48.6295  -60.1486 O.2       9 UNK        -0.5270 
     30 CA         27.1659  -49.8989  -59.1514 C.3       8 UNK         0.0284 
     31 CB         28.5753  -49.9524  -59.7765 C.3       8 UNK        -0.1977 
     32 N          27.1939  -50.2193  -57.7170 N.am      8 UNK        -0.4342 
     33 C          27.7919  -49.5370  -56.7325 C.2       8 UNK         0.5039 
     34 O          28.4443  -48.5064  -56.9050 O.2       8 UNK        -0.5547 
     35 CA         27.6644  -50.1167  -55.3172 C.3       7 UNK         0.0281 
     36 CB         28.8410  -51.0568  -55.0136 C.3       7 UNK        -0.1963 
     37 N          27.6465  -49.0317  -54.3365 N.am      7 UNK        -0.4444 
     38 C          26.5626  -48.2961  -54.0531 C.2       7 UNK         0.5104 
     39 O          25.4452  -48.5448  -54.5096 O.2       7 UNK        -0.5100 
     40 CA         26.7343  -47.0576  -53.1471 C.3       6 UNK         0.0396 
     41 CB         25.6313  -46.9664  -52.0716 C.3       6 UNK        -0.1801 
     42 N          28.0700  -46.8920  -52.5542 N.am      6 UNK        -0.4747 
     43 C          28.6569  -47.6837  -51.6450 C.2       6 UNK         0.5012 
     44 O          28.1297  -48.6847  -51.1543 O.2       6 UNK        -0.5003 
     45 CA         30.0806  -47.2890  -51.2101 C.3       5 UNK         0.0782 
     46 C46        30.0449  -46.5433  -49.8540 C.3       11 UNK        -0.0868 
     47 S47        31.7014  -45.9763  -49.3423 S.3       11 UNK        -0.2515 
     48 C48        31.6252  -44.1976  -49.7283 C.3       11 UNK         0.0199 
     49 N          30.9564  -48.4634  -51.1678 N.am      5 UNK        -0.4607 
     50 C          31.3078  -49.1892  -52.2339 C.2       4 UNK         0.5031 
     51 O          30.9179  -48.9613  -53.3814 O.2       4 UNK        -0.5119 
     52 CA         32.2335  -50.3855  -51.9707 C.3       4 UNK         0.0263 
     53 CB         31.4345  -51.6979  -51.9615 C.3       4 UNK        -0.1967 
     54 N          33.2601  -50.4566  -53.0059 N.am      4 UNK        -0.4237 
     55 C          34.3293  -49.6568  -53.0808 C.2       3 UNK         0.4908 
     56 O          34.6626  -48.8761  -52.1884 O.2       3 UNK        -0.5102 
     57 CA         35.1615  -49.7181  -54.3744 C.3       3 UNK         0.0241 
     58 CB         36.0982  -50.9427  -54.3871 C.3       3 UNK        -0.1971 
     59 N          34.3582  -49.6245  -55.6038 N.am      3 UNK        -0.4139 
     60 C          33.4790  -50.5032  -56.1085 C.2       2 UNK         0.5016 
     61 O          33.2138  -51.5912  -55.5934 O.2       2 UNK        -0.5319 
     62 CA         32.7234  -50.0362  -57.3575 C.3       2 UNK         0.0286 
     63 CB         31.7365  -51.0817  -57.9105 C.3       2 UNK        -0.1963 
     64 N          32.0136  -48.8049  -57.0235 N.am      2 UNK        -0.4790 
     65 C          31.8178  -47.7710  -57.8484 C.2       1 UNK         0.5024 
     66 O          32.1504  -47.7837  -59.0365 O.2       1 UNK        -0.4888 
     67 H67        31.1920  -43.1304  -59.3224 H         1 UNK         0.0892 
     68 H68        32.6865  -42.5448  -58.5891 H         1 UNK         0.0892 
     69 H69        32.7435  -43.4692  -60.0931 H         1 UNK         0.0892 
     70 H70        30.3656  -44.9187  -58.3298 H         1 UNK         0.3107 
     71 H71        30.0424  -46.7718  -57.4550 H         1 UNK         0.0773 
     72 H72        30.6311  -47.1833  -55.2319 H         1 UNK         0.0680 
     73 H73        30.6130  -45.4803  -55.4257 H         1 UNK         0.0680 
     74 H74        32.9967  -43.9669  -55.4854 H         1 UNK         0.0650 
     75 H75        34.1017  -44.4127  -54.2119 H         1 UNK         0.0650 
     76 H76        33.1934  -44.8840  -51.8606 H         1 UNK         0.1397 
     77 H77        29.4961  -42.9323  -50.8827 H         1 UNK         0.1363 
     78 H78        30.8187  -43.1138  -54.9543 H         1 UNK         0.1355 
     79 H79        28.4457  -41.5303  -52.6148 H         1 UNK         0.0707 
     80 H80        28.9823  -41.5778  -54.2710 H         1 UNK         0.0707 
     81 H81        28.8043  -43.6419  -55.7624 H         1 UNK         0.1034 
     82 H82        27.7963  -45.0066  -55.4467 H         1 UNK         0.1034 
     83 H83        25.8358  -43.1693  -56.0139 H         1 UNK         0.0482 
     84 H84        27.1286  -40.9637  -58.9069 H         1 UNK         0.3460 
     85 H85        26.3789  -42.5364  -59.0213 H         1 UNK         0.3460 
     86 H86        25.3544  -44.6376  -57.5289 H         1 UNK         0.2989 
     87 H87        25.4033  -46.1045  -59.0933 H         1 UNK         0.0559 
     88 H88        26.3790  -44.6440  -60.9114 H         1 UNK         0.0848 
     89 H89        26.1776  -46.3012  -61.4488 H         1 UNK         0.0848 
     90 H90        27.7767  -45.7065  -61.0079 H         1 UNK         0.0848 
     91 H91        27.7888  -47.5267  -58.4216 H         1 UNK         0.3144 
     92 H92        26.5850  -50.6974  -59.6164 H         1 UNK         0.0727 
     93 H93        29.0169  -50.9415  -59.6573 H         1 UNK         0.0790 
     94 H94        29.2565  -49.2260  -59.3324 H         1 UNK         0.0790 
     95 H95        28.5349  -49.7447  -60.8465 H         1 UNK         0.0790 
     96 H96        26.6653  -51.0420  -57.4596 H         1 UNK         0.3215 
     97 H97        26.7346  -50.6846  -55.2394 H         1 UNK         0.0863 
     98 H98        28.7885  -51.4390  -53.9943 H         1 UNK         0.0808 
     99 H99        29.8012  -50.5547  -55.1356 H         1 UNK         0.0808 
    100 H100       28.8381  -51.9169  -55.6841 H         1 UNK         0.0808 
    101 H101       28.5421  -48.7462  -53.9638 H         1 UNK         0.3118 
    102 H102       26.5978  -46.2037  -53.8088 H         1 UNK         0.0546 
    103 H103       24.6421  -46.9225  -52.5288 H         1 UNK         0.0828 
    104 H104       25.7434  -46.0683  -51.4644 H         1 UNK         0.0828 
    105 H105       25.6385  -47.8284  -51.4044 H         1 UNK         0.0828 
    106 H106       28.5836  -46.0880  -52.8902 H         1 UNK         0.3005 
    107 H107       30.4923  -46.6150  -51.9652 H         1 UNK         0.1257 
    108 H108       29.6518  -47.1928  -49.0694 H         1 UNK         0.0775 
    109 H109       29.3707  -45.6857  -49.9007 H         1 UNK         0.0775 
    110 H110       30.8541  -43.7334  -49.1113 H         1 UNK         0.0840 
    111 H111       32.5681  -43.7340  -49.4351 H         1 UNK         0.0840 
    112 H112       31.3052  -48.7197  -50.2563 H         1 UNK         0.2987 
    113 H113       32.7182  -50.2630  -50.9996 H         1 UNK         0.0785 
    114 H114       32.0728  -52.5478  -51.7195 H         1 UNK         0.0798 
    115 H115       30.9717  -51.8932  -52.9294 H         1 UNK         0.0798 
    116 H116       30.6375  -51.6664  -51.2173 H         1 UNK         0.0798 
    117 H117       33.0572  -51.0308  -53.8211 H         1 UNK         0.3079 
    118 H118       35.7939  -48.8286  -54.3758 H         1 UNK         0.0794 
    119 H119       36.7568  -50.9347  -53.5177 H         1 UNK         0.0786 
    120 H120       36.7321  -50.9470  -55.2737 H         1 UNK         0.0786 
    121 H121       35.5473  -51.8833  -54.3644 H         1 UNK         0.0786 
    122 H122       34.4340  -48.7371  -56.0831 H         1 UNK         0.3032 
    123 H123       33.4768  -49.8367  -58.1234 H         1 UNK         0.1094 
    124 H124       31.2992  -50.7454  -58.8496 H         1 UNK         0.0794 
    125 H125       32.2392  -52.0287  -58.1106 H         1 UNK         0.0794 
    126 H126       30.9237  -51.2814  -57.2125 H         1 UNK         0.0794 
    127 H127       31.7159  -48.7140  -56.0591 H         1 UNK         0.3016 
@<TRIPOS>BOND
     1    1    2 1    
     2    1   67 1    
     3    1   68 1    
     4    1   69 1    
     5    2    3 2    
     6    2    4 am   BACKBONE|DICT|INTERRES
     7    4    5 1    
     8    4   70 1    
     9    5    6 1    
    10    5   65 1    
    11    5   71 1    
    12    6    7 1    
    13    6   72 1    
    14    6   73 1    
    15    7    8 1    
    16    8    9 1    
    17    8   74 1    
    18    8   75 1    
    19    9   10 ar   
    20    9   14 ar   
    21   10   11 ar   
    22   10   76 1    
    23   11   12 ar   
    24   11   48 1    
    25   12   13 ar   
    26   12   77 1    
    27   13   14 ar   
    28   13   15 1    
    29   14   78 1    
    30   15   16 1    
    31   15   79 1    
    32   15   80 1    
    33   16   17 1    
    34   17   18 1    
    35   17   81 1    
    36   17   82 1    
    37   18   19 1    
    38   18   22 1    
    39   18   83 1    
    40   19   20 am   BACKBONE|DICT|INTERRES
    41   19   21 2    
    42   20   84 1    
    43   20   85 1    
    44   22   23 am   BACKBONE|DICT|INTERRES
    45   22   86 1    
    46   23   24 2    
    47   23   25 1    
    48   25   26 1    
    49   25   27 1    
    50   25   87 1    
    51   26   88 1    
    52   26   89 1    
    53   26   90 1    
    54   27   28 am   BACKBONE|DICT|INTERRES
    55   27   91 1    
    56   28   29 2    
    57   28   30 1    
    58   30   31 1    
    59   30   32 1    
    60   30   92 1    
    61   31   93 1    
    62   31   94 1    
    63   31   95 1    
    64   32   33 am   BACKBONE|DICT|INTERRES
    65   32   96 1    
    66   33   34 2    
    67   33   35 1    
    68   35   36 1    
    69   35   37 1    
    70   35   97 1    
    71   36   98 1    
    72   36   99 1    
    73   36  100 1    
    74   37   38 am   BACKBONE|DICT|INTERRES
    75   37  101 1    
    76   38   39 2    
    77   38   40 1    
    78   40   41 1    
    79   40   42 1    
    80   40  102 1    
    81   41  103 1    
    82   41  104 1    
    83   41  105 1    
    84   42   43 am   BACKBONE|DICT|INTERRES
    85   42  106 1    
    86   43   44 2    
    87   43   45 1    
    88   45   46 1    
    89   45   49 1    
    90   45  107 1    
    91   46   47 1    
    92   46  108 1    
    93   46  109 1    
    94   47   48 1    
    95   48  110 1    
    96   48  111 1    
    97   49   50 am   BACKBONE|DICT|INTERRES
    98   49  112 1    
    99   50   51 2    
   100   50   52 1    
   101   52   53 1    
   102   52   54 1    
   103   52  113 1    
   104   53  114 1    
   105   53  115 1    
   106   53  116 1    
   107   54   55 am   BACKBONE|DICT|INTERRES
   108   54  117 1    
   109   55   56 2    
   110   55   57 1    
   111   57   58 1    
   112   57   59 1    
   113   57  118 1    
   114   58  119 1    
   115   58  120 1    
   116   58  121 1    
   117   59   60 am   BACKBONE|DICT|INTERRES
   118   59  122 1    
   119   60   61 2    
   120   60   62 1    
   121   62   63 1    
   122   62   64 1    
   123   62  123 1    
   124   63  124 1    
   125   63  125 1    
   126   63  126 1    
   127   64   65 am   BACKBONE|DICT|INTERRES
   128   64  127 1    
   129   65   66 2    
@<TRIPOS>SUBSTRUCTURE
     1 UNK         1 GROUP             0       ****    0 ROOT    
