@<TRIPOS>MOLECULE
3R134
127   129    1
SMALL
USER_CHARGES


@<TRIPOS>ATOM
      1 CA         37.4584  -44.9551  -58.5428 C.3       0 UNK        -0.1968 
      2 C          36.2114  -45.6828  -58.0615 C.2       0 UNK         0.4852 
      3 O          35.4394  -46.1801  -58.8831 O.2       0 UNK        -0.5359 
      4 N          36.0060  -45.7418  -56.7391 N.am      1 UNK        -0.4300 
      5 CA         34.9008  -46.4588  -56.0957 C.3       1 UNK         0.0863 
      6 C6         34.6895  -45.9718  -54.6363 C.3       11 UNK        -0.0953 
      7 S7         32.9308  -45.9429  -54.1502 S.3       11 UNK        -0.2369 
      8 C8         32.5653  -44.1741  -54.3756 C.3       11 UNK         0.0226 
      9 C9         31.1798  -43.8168  -53.8628 C.ar      11 UNK        -0.0699 
     10 C10        30.9968  -43.4917  -52.5152 C.ar      11 UNK        -0.0804 
     11 C11        29.7269  -43.1645  -52.0297 C.ar      11 UNK        -0.0871 
     12 C12        28.6427  -43.1285  -52.9110 C.ar      11 UNK        -0.1008 
     13 C13        28.8136  -43.4545  -54.2595 C.ar      11 UNK        -0.0735 
     14 C14        30.0837  -43.8018  -54.7309 C.ar      11 UNK        -0.0945 
     15 C15        27.6171  -43.4379  -55.1956 C.3       11 UNK         0.0169 
     16 S16        26.5945  -44.9226  -54.9641 S.3       11 UNK        -0.2669 
     17 C17        25.1755  -44.5379  -56.0493 C.3       11 UNK        -0.0850 
     18 CA         25.0899  -45.4937  -57.2717 C.3       10 UNK         0.0855 
     19 C          23.7562  -45.3624  -58.0694 C.2       10 UNK         0.5543 
     20 N          23.7365  -45.6466  -59.3668 N.am      10 UNK        -0.7343 
     21 O          22.7171  -45.0291  -57.5045 O.2       10 UNK        -0.5027 
     22 N          26.3043  -45.4737  -58.1033 N.am      10 UNK        -0.4495 
     23 C          26.7439  -44.4564  -58.8594 C.2       10 UNK         0.4903 
     24 O          26.1940  -43.3561  -58.9122 O.2       10 UNK        -0.4860 
     25 CA         28.0124  -44.6885  -59.7079 C.3       9 UNK         0.0227 
     26 CB         29.2050  -43.9287  -59.1029 C.3       9 UNK        -0.1964 
     27 N          28.3806  -46.0987  -59.8611 N.am      9 UNK        -0.4231 
     28 C          27.6648  -47.0320  -60.5058 C.2       9 UNK         0.5014 
     29 O          26.6531  -46.7865  -61.1642 O.2       9 UNK        -0.5270 
     30 CA         28.1252  -48.4951  -60.3385 C.3       8 UNK         0.0284 
     31 CB         28.9753  -48.9317  -61.5426 C.3       8 UNK        -0.1977 
     32 N          28.8705  -48.7553  -59.0963 N.am      8 UNK        -0.4342 
     33 C          28.4000  -48.5508  -57.8568 C.2       8 UNK         0.5039 
     34 O          27.2661  -48.1270  -57.6241 O.2       8 UNK        -0.5547 
     35 CA         29.3881  -48.7916  -56.7036 C.3       7 UNK         0.0281 
     36 CB         30.5358  -47.7653  -56.7371 C.3       7 UNK        -0.1963 
     37 N          28.7337  -48.6869  -55.4019 N.am      7 UNK        -0.4444 
     38 C          27.9988  -49.6411  -54.8187 C.2       7 UNK         0.5104 
     39 O          27.8109  -50.7560  -55.3089 O.2       7 UNK        -0.5100 
     40 CA         27.4032  -49.2896  -53.4437 C.3       6 UNK         0.0396 
     41 CB         27.1630  -50.5233  -52.5533 C.3       6 UNK        -0.1801 
     42 N          28.2673  -48.3382  -52.7436 N.am      6 UNK        -0.4747 
     43 C          27.8525  -47.3330  -51.9610 C.2       6 UNK         0.5012 
     44 O          26.6676  -47.1212  -51.6969 O.2       6 UNK        -0.5003 
     45 CA         28.9517  -46.4050  -51.3964 C.3       5 UNK         0.0782 
     46 C46        28.4746  -45.5358  -50.1967 C.3       11 UNK        -0.0868 
     47 S47        29.7681  -44.4131  -49.5529 S.3       11 UNK        -0.2515 
     48 C48        29.5161  -42.9032  -50.5455 C.3       11 UNK         0.0199 
     49 N          30.2197  -47.1045  -51.1628 N.am      5 UNK        -0.4607 
     50 C          30.4423  -48.1093  -50.3083 C.2       4 UNK         0.5031 
     51 O          29.5945  -48.5900  -49.5541 O.2       4 UNK        -0.5119 
     52 CA         31.8638  -48.6966  -50.3399 C.3       4 UNK         0.0263 
     53 CB         32.3764  -49.0041  -48.9218 C.3       4 UNK        -0.1967 
     54 N          31.9665  -49.9073  -51.1614 N.am      4 UNK        -0.4237 
     55 C          31.6365  -50.0209  -52.4558 C.2       3 UNK         0.4908 
     56 O          31.1015  -49.1323  -53.1242 O.2       3 UNK        -0.5102 
     57 CA         31.9643  -51.3647  -53.1274 C.3       3 UNK         0.0241 
     58 CB         30.7124  -52.2497  -53.2245 C.3       3 UNK        -0.1971 
     59 N          32.5063  -51.1409  -54.4685 N.am      3 UNK        -0.4139 
     60 C          33.7114  -50.6075  -54.7117 C.2       2 UNK         0.5016 
     61 O          34.5519  -50.4002  -53.8343 O.2       2 UNK        -0.5319 
     62 CA         34.0339  -50.2091  -56.1617 C.3       2 UNK         0.0286 
     63 CB         33.0518  -50.7687  -57.2115 C.3       2 UNK        -0.1963 
     64 N          34.0405  -48.7484  -56.2400 N.am      2 UNK        -0.4790 
     65 C          35.1348  -47.9837  -56.1556 C.2       1 UNK         0.5024 
     66 O          36.2842  -48.4302  -56.0999 O.2       1 UNK        -0.4888 
     67 H67        37.1817  -44.1279  -59.1958 H         1 UNK         0.0892 
     68 H68        38.0416  -44.5525  -57.7148 H         1 UNK         0.0892 
     69 H69        38.0956  -45.6362  -59.1063 H         1 UNK         0.0892 
     70 H70        36.6959  -45.3496  -56.1146 H         1 UNK         0.3107 
     71 H71        34.0032  -46.2305  -56.6757 H         1 UNK         0.0773 
     72 H72        35.0896  -44.9649  -54.5074 H         1 UNK         0.0680 
     73 H73        35.2399  -46.5849  -53.9192 H         1 UNK         0.0680 
     74 H74        32.6572  -43.9199  -55.4327 H         1 UNK         0.0650 
     75 H75        33.3101  -43.5763  -53.8480 H         1 UNK         0.0650 
     76 H76        31.8382  -43.5219  -51.8360 H         1 UNK         0.1397 
     77 H77        27.6555  -42.8808  -52.5445 H         1 UNK         0.1363 
     78 H78        30.2210  -44.0596  -55.7716 H         1 UNK         0.1355 
     79 H79        27.9397  -43.3765  -56.2356 H         1 UNK         0.0707 
     80 H80        27.0179  -42.5468  -55.0021 H         1 UNK         0.0707 
     81 H81        24.2761  -44.6226  -55.4370 H         1 UNK         0.1034 
     82 H82        25.2139  -43.4981  -56.3775 H         1 UNK         0.1034 
     83 H83        25.0498  -46.5068  -56.8697 H         1 UNK         0.0482 
     84 H84        24.5816  -45.9330  -59.8390 H         1 UNK         0.3460 
     85 H85        22.8713  -45.5710  -59.8778 H         1 UNK         0.3460 
     86 H86        26.8112  -46.3552  -58.1066 H         1 UNK         0.2989 
     87 H87        27.8153  -44.2842  -60.7029 H         1 UNK         0.0559 
     88 H88        30.0864  -43.9983  -59.7406 H         1 UNK         0.0848 
     89 H89        29.4704  -44.3138  -58.1181 H         1 UNK         0.0848 
     90 H90        28.9763  -42.8682  -58.9868 H         1 UNK         0.0848 
     91 H91        29.2002  -46.4058  -59.3597 H         1 UNK         0.3144 
     92 H92        27.2251  -49.1129  -60.3129 H         1 UNK         0.0727 
     93 H93        29.9075  -48.3688  -61.6058 H         1 UNK         0.0790 
     94 H94        28.4362  -48.7742  -62.4781 H         1 UNK         0.0790 
     95 H95        29.2240  -49.9920  -61.4909 H         1 UNK         0.0790 
     96 H96        29.8109  -49.1075  -59.2062 H         1 UNK         0.3215 
     97 H97        29.7953  -49.7986  -56.8086 H         1 UNK         0.0863 
     98 H98        31.2028  -47.9017  -55.8858 H         1 UNK         0.0808 
     99 H99        30.1624  -46.7407  -56.6991 H         1 UNK         0.0808 
    100 H100       31.1380  -47.8625  -57.6411 H         1 UNK         0.0808 
    101 H101       28.7776  -47.7875  -54.9469 H         1 UNK         0.3118 
    102 H102       26.4390  -48.8200  -53.6486 H         1 UNK         0.0546 
    103 H103       28.0965  -51.0324  -52.3144 H         1 UNK         0.0828 
    104 H104       26.5090  -51.2449  -53.0441 H         1 UNK         0.0828 
    105 H105       26.6865  -50.2445  -51.6134 H         1 UNK         0.0828 
    106 H106       29.2682  -48.4723  -52.8803 H         1 UNK         0.3005 
    107 H107       29.1580  -45.7348  -52.2278 H         1 UNK         0.1257 
    108 H108       28.1497  -46.1770  -49.3756 H         1 UNK         0.0775 
    109 H109       27.6044  -44.9392  -50.4765 H         1 UNK         0.0775 
    110 H110       28.5172  -42.5083  -50.3533 H         1 UNK         0.0840 
    111 H111       30.2177  -42.1373  -50.2119 H         1 UNK         0.0840 
    112 H112       30.9771  -46.8288  -51.7727 H         1 UNK         0.2987 
    113 H113       32.5320  -47.9510  -50.7765 H         1 UNK         0.0785 
    114 H114       32.3073  -48.1220  -48.2835 H         1 UNK         0.0798 
    115 H115       33.4223  -49.3116  -48.9342 H         1 UNK         0.0798 
    116 H116       31.7982  -49.7966  -48.4447 H         1 UNK         0.0798 
    117 H117       32.3709  -50.7113  -50.7039 H         1 UNK         0.3079 
    118 H118       32.7166  -51.8896  -52.5345 H         1 UNK         0.0794 
    119 H119       30.2813  -52.4283  -52.2386 H         1 UNK         0.0786 
    120 H120       30.9481  -53.2231  -53.6551 H         1 UNK         0.0786 
    121 H121       29.9405  -51.7902  -53.8419 H         1 UNK         0.0786 
    122 H122       31.8643  -51.2533  -55.2382 H         1 UNK         0.3032 
    123 H123       35.0252  -50.6092  -56.3877 H         1 UNK         0.1094 
    124 H124       33.3736  -50.5062  -58.2196 H         1 UNK         0.0794 
    125 H125       33.0060  -51.8579  -57.1681 H         1 UNK         0.0794 
    126 H126       32.0415  -50.3843  -57.0828 H         1 UNK         0.0794 
    127 H127       33.1399  -48.2941  -56.2095 H         1 UNK         0.3016 
@<TRIPOS>BOND
     1    1    2 1    
     2    1   67 1    
     3    1   68 1    
     4    1   69 1    
     5    2    3 2    
     6    2    4 am   BACKBONE|DICT|INTERRES
     7    4    5 1    
     8    4   70 1    
     9    5    6 1    
    10    5   65 1    
    11    5   71 1    
    12    6    7 1    
    13    6   72 1    
    14    6   73 1    
    15    7    8 1    
    16    8    9 1    
    17    8   74 1    
    18    8   75 1    
    19    9   10 ar   
    20    9   14 ar   
    21   10   11 ar   
    22   10   76 1    
    23   11   12 ar   
    24   11   48 1    
    25   12   13 ar   
    26   12   77 1    
    27   13   14 ar   
    28   13   15 1    
    29   14   78 1    
    30   15   16 1    
    31   15   79 1    
    32   15   80 1    
    33   16   17 1    
    34   17   18 1    
    35   17   81 1    
    36   17   82 1    
    37   18   19 1    
    38   18   22 1    
    39   18   83 1    
    40   19   20 am   BACKBONE|DICT|INTERRES
    41   19   21 2    
    42   20   84 1    
    43   20   85 1    
    44   22   23 am   BACKBONE|DICT|INTERRES
    45   22   86 1    
    46   23   24 2    
    47   23   25 1    
    48   25   26 1    
    49   25   27 1    
    50   25   87 1    
    51   26   88 1    
    52   26   89 1    
    53   26   90 1    
    54   27   28 am   BACKBONE|DICT|INTERRES
    55   27   91 1    
    56   28   29 2    
    57   28   30 1    
    58   30   31 1    
    59   30   32 1    
    60   30   92 1    
    61   31   93 1    
    62   31   94 1    
    63   31   95 1    
    64   32   33 am   BACKBONE|DICT|INTERRES
    65   32   96 1    
    66   33   34 2    
    67   33   35 1    
    68   35   36 1    
    69   35   37 1    
    70   35   97 1    
    71   36   98 1    
    72   36   99 1    
    73   36  100 1    
    74   37   38 am   BACKBONE|DICT|INTERRES
    75   37  101 1    
    76   38   39 2    
    77   38   40 1    
    78   40   41 1    
    79   40   42 1    
    80   40  102 1    
    81   41  103 1    
    82   41  104 1    
    83   41  105 1    
    84   42   43 am   BACKBONE|DICT|INTERRES
    85   42  106 1    
    86   43   44 2    
    87   43   45 1    
    88   45   46 1    
    89   45   49 1    
    90   45  107 1    
    91   46   47 1    
    92   46  108 1    
    93   46  109 1    
    94   47   48 1    
    95   48  110 1    
    96   48  111 1    
    97   49   50 am   BACKBONE|DICT|INTERRES
    98   49  112 1    
    99   50   51 2    
   100   50   52 1    
   101   52   53 1    
   102   52   54 1    
   103   52  113 1    
   104   53  114 1    
   105   53  115 1    
   106   53  116 1    
   107   54   55 am   BACKBONE|DICT|INTERRES
   108   54  117 1    
   109   55   56 2    
   110   55   57 1    
   111   57   58 1    
   112   57   59 1    
   113   57  118 1    
   114   58  119 1    
   115   58  120 1    
   116   58  121 1    
   117   59   60 am   BACKBONE|DICT|INTERRES
   118   59  122 1    
   119   60   61 2    
   120   60   62 1    
   121   62   63 1    
   122   62   64 1    
   123   62  123 1    
   124   63  124 1    
   125   63  125 1    
   126   63  126 1    
   127   64   65 am   BACKBONE|DICT|INTERRES
   128   64  127 1    
   129   65   66 2    
@<TRIPOS>SUBSTRUCTURE
     1 UNK         1 GROUP             0       ****    0 ROOT    
