@<TRIPOS>MOLECULE
3R134
127   129    1
SMALL
USER_CHARGES


@<TRIPOS>ATOM
      1 CA         37.5821  -45.3263  -55.8255 C.3       0 UNK        -0.1968 
      2 C          36.2055  -45.4607  -55.1922 C.2       0 UNK         0.4852 
      3 O          35.4621  -46.3799  -55.5366 O.2       0 UNK        -0.5359 
      4 N          35.8680  -44.5640  -54.2561 N.am      1 UNK        -0.4300 
      5 CA         34.5811  -44.4715  -53.5486 C.3       1 UNK         0.0863 
      6 C6         34.3581  -43.0398  -52.9890 C.3       11 UNK        -0.0953 
      7 S7         34.3469  -41.7787  -54.3114 S.3       11 UNK        -0.2369 
      8 C8         32.5996  -41.2602  -54.3482 C.3       11 UNK         0.0226 
      9 C9         31.6495  -42.4279  -54.5760 C.ar      11 UNK        -0.0699 
     10 C10        31.6410  -43.1047  -55.7986 C.ar      11 UNK        -0.0804 
     11 C11        30.7928  -44.1970  -55.9943 C.ar      11 UNK        -0.0871 
     12 C12        29.9264  -44.5897  -54.9691 C.ar      11 UNK        -0.1008 
     13 C13        29.9341  -43.9324  -53.7328 C.ar      11 UNK        -0.0735 
     14 C14        30.7948  -42.8462  -53.5516 C.ar      11 UNK        -0.0945 
     15 C15        29.1015  -44.4088  -52.5419 C.3       11 UNK         0.0169 
     16 S16        27.6468  -45.4306  -52.9505 S.3       11 UNK        -0.2669 
     17 C17        26.4218  -44.1657  -53.4148 C.3       11 UNK        -0.0850 
     18 CA         25.4698  -44.6622  -54.5333 C.3       10 UNK         0.0855 
     19 C          24.2068  -43.7597  -54.6064 C.2       10 UNK         0.5543 
     20 N          23.1570  -44.1024  -53.8728 N.am      10 UNK        -0.7343 
     21 O          24.1882  -42.7335  -55.2838 O.2       10 UNK        -0.5027 
     22 N          26.1570  -44.7489  -55.8311 N.am      10 UNK        -0.4495 
     23 C          25.6462  -45.3420  -56.9180 C.2       10 UNK         0.4903 
     24 O          24.6250  -46.0290  -56.9065 O.2       10 UNK        -0.4860 
     25 CA         26.3604  -45.1095  -58.2561 C.3       9 UNK         0.0227 
     26 CB         27.3311  -43.9094  -58.2635 C.3       9 UNK        -0.1964 
     27 N          27.0524  -46.3329  -58.6599 N.am      9 UNK        -0.4231 
     28 C          27.0508  -46.8357  -59.9024 C.2       9 UNK         0.5014 
     29 O          26.4771  -46.3077  -60.8565 O.2       9 UNK        -0.5270 
     30 CA         27.8163  -48.1472  -60.1355 C.3       8 UNK         0.0284 
     31 CB         29.3176  -47.8682  -60.3262 C.3       8 UNK        -0.1977 
     32 N          27.6313  -49.0912  -59.0324 N.am      8 UNK        -0.4342 
     33 C          26.7381  -50.0913  -59.0151 C.2       8 UNK         0.5039 
     34 O          25.9651  -50.3321  -59.9434 O.2       8 UNK        -0.5547 
     35 CA         26.7040  -50.9965  -57.7669 C.3       7 UNK         0.0281 
     36 CB         27.4953  -52.2894  -58.0227 C.3       7 UNK        -0.1963 
     37 N          27.2351  -50.3393  -56.5714 N.am      7 UNK        -0.4444 
     38 C          26.5709  -49.4127  -55.8646 C.2       7 UNK         0.5104 
     39 O          25.3886  -49.1337  -56.0575 O.2       7 UNK        -0.5100 
     40 CA         27.3550  -48.6439  -54.7814 C.3       6 UNK         0.0396 
     41 CB         26.9675  -49.1429  -53.3817 C.3       6 UNK        -0.1801 
     42 N          28.8148  -48.7035  -54.9367 N.am      6 UNK        -0.4747 
     43 C          29.4892  -48.2274  -55.9964 C.2       6 UNK         0.5012 
     44 O          28.9250  -47.6495  -56.9242 O.2       6 UNK        -0.5003 
     45 CA         31.0057  -48.5125  -56.0935 C.3       5 UNK         0.0782 
     46 C46        31.8686  -47.2457  -55.8617 C.3       11 UNK        -0.0868 
     47 S47        32.1428  -46.2317  -57.3587 S.3       11 UNK        -0.2515 
     48 C48        30.8264  -44.9697  -57.3049 C.3       11 UNK         0.0199 
     49 N          31.4193  -49.6027  -55.2045 N.am      5 UNK        -0.4607 
     50 C          31.0984  -50.8940  -55.3732 C.2       4 UNK         0.5031 
     51 O          30.4197  -51.3010  -56.3162 O.2       4 UNK        -0.5119 
     52 CA         31.5809  -51.8959  -54.3063 C.3       4 UNK         0.0263 
     53 CB         32.8479  -52.6193  -54.7897 C.3       4 UNK        -0.1967 
     54 N          31.8451  -51.2853  -52.9997 N.am      4 UNK        -0.4237 
     55 C          30.9126  -50.7364  -52.2070 C.2       3 UNK         0.4908 
     56 O          29.7095  -50.7480  -52.4637 O.2       3 UNK        -0.5102 
     57 CA         31.4064  -50.0063  -50.9424 C.3       3 UNK         0.0241 
     58 CB         31.3946  -50.9571  -49.7347 C.3       3 UNK        -0.1971 
     59 N          32.7389  -49.3986  -51.0747 N.am      3 UNK        -0.4139 
     60 C          33.0732  -48.4823  -51.9945 C.2       2 UNK         0.5016 
     61 O          32.2918  -48.0679  -52.8526 O.2       2 UNK        -0.5319 
     62 CA         34.5365  -48.0119  -51.9986 C.3       2 UNK         0.0286 
     63 CB         35.4530  -49.1154  -52.5552 C.3       2 UNK        -0.1963 
     64 N          34.7024  -46.8190  -52.8286 N.am      2 UNK        -0.4790 
     65 C          34.4310  -45.5627  -52.4585 C.2       1 UNK         0.5024 
     66 O          34.0987  -45.2581  -51.3110 O.2       1 UNK        -0.4888 
     67 H67        38.1319  -44.4721  -55.4307 H         1 UNK         0.0892 
     68 H68        38.1700  -46.2246  -55.6387 H         1 UNK         0.0892 
     69 H69        37.4867  -45.1990  -56.9034 H         1 UNK         0.0892 
     70 H70        36.5355  -43.8477  -54.0087 H         1 UNK         0.3107 
     71 H71        33.7867  -44.6670  -54.2731 H         1 UNK         0.0773 
     72 H72        35.1452  -42.7813  -52.2784 H         1 UNK         0.0680 
     73 H73        33.4223  -42.9792  -52.4316 H         1 UNK         0.0680 
     74 H74        32.4657  -40.5280  -55.1456 H         1 UNK         0.0650 
     75 H75        32.3653  -40.7440  -53.4159 H         1 UNK         0.0650 
     76 H76        32.3165  -42.7985  -56.5858 H         1 UNK         0.1397 
     77 H77        29.2848  -45.4446  -55.1251 H         1 UNK         0.1363 
     78 H78        30.8185  -42.3391  -52.5965 H         1 UNK         0.1355 
     79 H79        29.7539  -45.0005  -51.8983 H         1 UNK         0.0707 
     80 H80        28.7745  -43.5557  -51.9452 H         1 UNK         0.0707 
     81 H81        25.8641  -43.9192  -52.5088 H         1 UNK         0.1034 
     82 H82        26.9253  -43.2459  -53.7189 H         1 UNK         0.1034 
     83 H83        25.1373  -45.6702  -54.2745 H         1 UNK         0.0482 
     84 H84        22.3335  -43.5212  -53.8938 H         1 UNK         0.3460 
     85 H85        23.1660  -44.9367  -53.3067 H         1 UNK         0.3460 
     86 H86        26.9852  -44.1826  -55.9309 H         1 UNK         0.2989 
     87 H87        25.5673  -44.8873  -58.9732 H         1 UNK         0.0559 
     88 H88        26.8023  -42.9825  -58.0368 H         1 UNK         0.0848 
     89 H89        27.7898  -43.7818  -59.2442 H         1 UNK         0.0848 
     90 H90        28.1325  -44.0127  -57.5352 H         1 UNK         0.0848 
     91 H91        27.5673  -46.8246  -57.9331 H         1 UNK         0.3144 
     92 H92        27.4430  -48.5896  -61.0618 H         1 UNK         0.0727 
     93 H93        29.8672  -48.7864  -60.5338 H         1 UNK         0.0790 
     94 H94        29.7649  -47.4025  -59.4475 H         1 UNK         0.0790 
     95 H95        29.4830  -47.1949  -61.1683 H         1 UNK         0.0790 
     96 H96        28.1840  -48.9141  -58.2010 H         1 UNK         0.3215 
     97 H97        25.6615  -51.2664  -57.5834 H         1 UNK         0.0863 
     98 H98        27.4441  -52.9631  -57.1672 H         1 UNK         0.0808 
     99 H99        28.5473  -52.0859  -58.2270 H         1 UNK         0.0808 
    100 H100       27.0949  -52.8277  -58.8830 H         1 UNK         0.0808 
    101 H101       28.1989  -50.5363  -56.3314 H         1 UNK         0.3118 
    102 H102       27.0613  -47.5962  -54.8643 H         1 UNK         0.0546 
    103 H103       27.1927  -50.2022  -53.2550 H         1 UNK         0.0828 
    104 H104       25.8990  -49.0134  -53.2050 H         1 UNK         0.0828 
    105 H105       27.4930  -48.5914  -52.6019 H         1 UNK         0.0828 
    106 H106       29.3272  -49.1916  -54.2126 H         1 UNK         0.3005 
    107 H107       31.1859  -48.8596  -57.1137 H         1 UNK         0.1257 
    108 H108       32.8707  -47.5477  -55.5524 H         1 UNK         0.0775 
    109 H109       31.5029  -46.6525  -55.0259 H         1 UNK         0.0775 
    110 H110       30.9779  -44.2756  -58.1329 H         1 UNK         0.0840 
    111 H111       29.8682  -45.4452  -57.4970 H         1 UNK         0.0840 
    112 H112       31.9132  -49.3141  -54.3657 H         1 UNK         0.2987 
    113 H113       30.7897  -52.6375  -54.1764 H         1 UNK         0.0785 
    114 H114       32.6753  -53.1085  -55.7496 H         1 UNK         0.0798 
    115 H115       33.1573  -53.3925  -54.0862 H         1 UNK         0.0798 
    116 H116       33.6824  -51.9292  -54.9214 H         1 UNK         0.0798 
    117 H117       32.8096  -51.2350  -52.7070 H         1 UNK         0.3079 
    118 H118       30.7003  -49.1966  -50.7461 H         1 UNK         0.0794 
    119 H119       31.6367  -50.4303  -48.8114 H         1 UNK         0.0786 
    120 H120       32.1087  -51.7729  -49.8546 H         1 UNK         0.0786 
    121 H121       30.4085  -51.4044  -49.5999 H         1 UNK         0.0786 
    122 H122       33.4386  -49.6998  -50.4111 H         1 UNK         0.3032 
    123 H123       34.8316  -47.7797  -50.9727 H         1 UNK         0.1094 
    124 H124       35.1755  -49.3953  -53.5727 H         1 UNK         0.0794 
    125 H125       36.4941  -48.7920  -52.5720 H         1 UNK         0.0794 
    126 H126       35.4090  -50.0172  -51.9434 H         1 UNK         0.0794 
    127 H127       34.9329  -46.9653  -53.8085 H         1 UNK         0.3016 
@<TRIPOS>BOND
     1    1    2 1    
     2    1   67 1    
     3    1   68 1    
     4    1   69 1    
     5    2    3 2    
     6    2    4 am   BACKBONE|DICT|INTERRES
     7    4    5 1    
     8    4   70 1    
     9    5    6 1    
    10    5   65 1    
    11    5   71 1    
    12    6    7 1    
    13    6   72 1    
    14    6   73 1    
    15    7    8 1    
    16    8    9 1    
    17    8   74 1    
    18    8   75 1    
    19    9   10 ar   
    20    9   14 ar   
    21   10   11 ar   
    22   10   76 1    
    23   11   12 ar   
    24   11   48 1    
    25   12   13 ar   
    26   12   77 1    
    27   13   14 ar   
    28   13   15 1    
    29   14   78 1    
    30   15   16 1    
    31   15   79 1    
    32   15   80 1    
    33   16   17 1    
    34   17   18 1    
    35   17   81 1    
    36   17   82 1    
    37   18   19 1    
    38   18   22 1    
    39   18   83 1    
    40   19   20 am   BACKBONE|DICT|INTERRES
    41   19   21 2    
    42   20   84 1    
    43   20   85 1    
    44   22   23 am   BACKBONE|DICT|INTERRES
    45   22   86 1    
    46   23   24 2    
    47   23   25 1    
    48   25   26 1    
    49   25   27 1    
    50   25   87 1    
    51   26   88 1    
    52   26   89 1    
    53   26   90 1    
    54   27   28 am   BACKBONE|DICT|INTERRES
    55   27   91 1    
    56   28   29 2    
    57   28   30 1    
    58   30   31 1    
    59   30   32 1    
    60   30   92 1    
    61   31   93 1    
    62   31   94 1    
    63   31   95 1    
    64   32   33 am   BACKBONE|DICT|INTERRES
    65   32   96 1    
    66   33   34 2    
    67   33   35 1    
    68   35   36 1    
    69   35   37 1    
    70   35   97 1    
    71   36   98 1    
    72   36   99 1    
    73   36  100 1    
    74   37   38 am   BACKBONE|DICT|INTERRES
    75   37  101 1    
    76   38   39 2    
    77   38   40 1    
    78   40   41 1    
    79   40   42 1    
    80   40  102 1    
    81   41  103 1    
    82   41  104 1    
    83   41  105 1    
    84   42   43 am   BACKBONE|DICT|INTERRES
    85   42  106 1    
    86   43   44 2    
    87   43   45 1    
    88   45   46 1    
    89   45   49 1    
    90   45  107 1    
    91   46   47 1    
    92   46  108 1    
    93   46  109 1    
    94   47   48 1    
    95   48  110 1    
    96   48  111 1    
    97   49   50 am   BACKBONE|DICT|INTERRES
    98   49  112 1    
    99   50   51 2    
   100   50   52 1    
   101   52   53 1    
   102   52   54 1    
   103   52  113 1    
   104   53  114 1    
   105   53  115 1    
   106   53  116 1    
   107   54   55 am   BACKBONE|DICT|INTERRES
   108   54  117 1    
   109   55   56 2    
   110   55   57 1    
   111   57   58 1    
   112   57   59 1    
   113   57  118 1    
   114   58  119 1    
   115   58  120 1    
   116   58  121 1    
   117   59   60 am   BACKBONE|DICT|INTERRES
   118   59  122 1    
   119   60   61 2    
   120   60   62 1    
   121   62   63 1    
   122   62   64 1    
   123   62  123 1    
   124   63  124 1    
   125   63  125 1    
   126   63  126 1    
   127   64   65 am   BACKBONE|DICT|INTERRES
   128   64  127 1    
   129   65   66 2    
@<TRIPOS>SUBSTRUCTURE
     1 UNK         1 GROUP             0       ****    0 ROOT    
