@<TRIPOS>MOLECULE
3R134
127   129    1
SMALL
USER_CHARGES


@<TRIPOS>ATOM
      1 CA         30.0481  -44.8651  -52.8467 C.3       0 UNK        -0.1968 
      2 C          31.3008  -44.9383  -51.9915 C.2       0 UNK         0.4852 
      3 O          31.2285  -45.3042  -50.8180 O.2       0 UNK        -0.5359 
      4 N          32.4525  -44.5906  -52.5787 N.am      1 UNK        -0.4300 
      5 CA         33.7605  -44.5424  -51.9078 C.3       1 UNK         0.0863 
      6 C6         34.7188  -43.5448  -52.6062 C.3       11 UNK        -0.0953 
      7 S7         34.0343  -41.8499  -52.6164 S.3       11 UNK        -0.2369 
      8 C8         34.0925  -41.3928  -54.3786 C.3       11 UNK         0.0226 
      9 C9         33.1584  -42.2302  -55.2426 C.ar      11 UNK        -0.0699 
     10 C10        33.6855  -43.1892  -56.1113 C.ar      11 UNK        -0.0804 
     11 C11        32.8414  -43.9468  -56.9255 C.ar      11 UNK        -0.0871 
     12 C12        31.4623  -43.7205  -56.8893 C.ar      11 UNK        -0.1008 
     13 C13        30.9151  -42.7828  -56.0072 C.ar      11 UNK        -0.0735 
     14 C14        31.7733  -42.0342  -55.1920 C.ar      11 UNK        -0.0945 
     15 C15        29.4047  -42.5638  -55.9346 C.3       11 UNK         0.0169 
     16 S16        28.4536  -44.1245  -55.9171 S.3       11 UNK        -0.2669 
     17 C17        26.8408  -43.5575  -55.2891 C.3       11 UNK        -0.0850 
     18 CA         25.9426  -44.7414  -54.8119 C.3       10 UNK         0.0855 
     19 C          24.7538  -44.2816  -53.9099 C.2       10 UNK         0.5543 
     20 N          25.0123  -43.4622  -52.8987 N.am      10 UNK        -0.7343 
     21 O          23.6047  -44.6874  -54.0769 O.2       10 UNK        -0.5027 
     22 N          25.5290  -45.6477  -55.9026 N.am      10 UNK        -0.4495 
     23 C          24.7432  -45.3239  -56.9403 C.2       10 UNK         0.4903 
     24 O          24.3997  -44.1712  -57.2117 O.2       10 UNK        -0.4860 
     25 CA         24.2091  -46.4963  -57.7881 C.3       9 UNK         0.0227 
     26 CB         23.3659  -46.0347  -58.9971 C.3       9 UNK        -0.1964 
     27 N          25.2436  -47.4446  -58.2118 N.am      9 UNK        -0.4231 
     28 C          26.3069  -47.2121  -58.9954 C.2       9 UNK         0.5014 
     29 O          26.5894  -46.1083  -59.4648 O.2       9 UNK        -0.5270 
     30 CA         27.1816  -48.4388  -59.3291 C.3       8 UNK         0.0284 
     31 CB         28.5068  -48.0625  -60.0197 C.3       8 UNK        -0.1977 
     32 N          27.4662  -49.2322  -58.1303 N.am      8 UNK        -0.4342 
     33 C          26.6921  -50.2199  -57.6574 C.2       8 UNK         0.5039 
     34 O          25.6612  -50.5919  -58.2186 O.2       8 UNK        -0.5547 
     35 CA         27.0837  -50.8743  -56.3184 C.3       7 UNK         0.0281 
     36 CB         27.8521  -52.1821  -56.5658 C.3       7 UNK        -0.1963 
     37 N          27.8717  -50.0101  -55.4376 N.am      7 UNK        -0.4444 
     38 C          27.4619  -48.8377  -54.9319 C.2       7 UNK         0.5104 
     39 O          26.3339  -48.3684  -55.0936 O.2       7 UNK        -0.5100 
     40 CA         28.5178  -48.0198  -54.1713 C.3       6 UNK         0.0396 
     41 CB         28.5769  -48.4490  -52.6975 C.3       6 UNK        -0.1801 
     42 N          29.8572  -48.1050  -54.7621 N.am      6 UNK        -0.4747 
     43 C          30.1711  -47.7652  -56.0216 C.2       6 UNK         0.5012 
     44 O          29.3519  -47.3659  -56.8451 O.2       6 UNK        -0.5003 
     45 CA         31.6377  -47.9409  -56.4499 C.3       5 UNK         0.0782 
     46 C46        32.5397  -46.8671  -55.7994 C.3       11 UNK        -0.0868 
     47 S47        34.0000  -46.4733  -56.8163 S.3       11 UNK        -0.2515 
     48 C48        33.4107  -45.0530  -57.8024 C.3       11 UNK         0.0199 
     49 N          32.0984  -49.2946  -56.1464 N.am      5 UNK        -0.4607 
     50 C          31.6934  -50.4019  -56.7801 C.2       4 UNK         0.5031 
     51 O          30.9646  -50.3984  -57.7715 O.2       4 UNK        -0.5119 
     52 CA         32.1656  -51.7423  -56.1898 C.3       4 UNK         0.0263 
     53 CB         33.4772  -52.1897  -56.8544 C.3       4 UNK        -0.1967 
     54 N          32.3470  -51.6955  -54.7344 N.am      4 UNK        -0.4237 
     55 C          31.3485  -51.5490  -53.8507 C.2       3 UNK         0.4908 
     56 O          30.1606  -51.4669  -54.1653 O.2       3 UNK        -0.5102 
     57 CA         31.7537  -51.4206  -52.3708 C.3       3 UNK         0.0241 
     58 CB         32.0619  -52.8006  -51.7678 C.3       3 UNK        -0.1971 
     59 N          32.8901  -50.5141  -52.1507 N.am      3 UNK        -0.4139 
     60 C          32.8741  -49.2093  -52.4536 C.2       2 UNK         0.5016 
     61 O          31.9082  -48.6470  -52.9760 O.2       2 UNK        -0.5319 
     62 CA         34.1435  -48.3950  -52.1705 C.3       2 UNK         0.0286 
     63 CB         35.2532  -48.7203  -53.1882 C.3       2 UNK        -0.1963 
     64 N          33.7780  -46.9849  -52.2651 N.am      2 UNK        -0.4790 
     65 C          34.4138  -45.9359  -51.7343 C.2       1 UNK         0.5024 
     66 O          35.4736  -46.0352  -51.1142 O.2       1 UNK        -0.4888 
     67 H67        29.7623  -43.8266  -53.0107 H         1 UNK         0.0892 
     68 H68        30.2147  -45.3351  -53.8151 H         1 UNK         0.0892 
     69 H69        29.2152  -45.3733  -52.3623 H         1 UNK         0.0892 
     70 H70        32.4469  -44.2651  -53.5357 H         1 UNK         0.3107 
     71 H71        33.5968  -44.1716  -50.8934 H         1 UNK         0.0773 
     72 H72        34.9406  -43.8716  -53.6229 H         1 UNK         0.0680 
     73 H73        35.6773  -43.5029  -52.0856 H         1 UNK         0.0680 
     74 H74        35.1222  -41.4691  -54.7315 H         1 UNK         0.0650 
     75 H75        33.8173  -40.3416  -54.4744 H         1 UNK         0.0650 
     76 H76        34.7528  -43.3618  -56.1442 H         1 UNK         0.1397 
     77 H77        30.8069  -44.3071  -57.5191 H         1 UNK         0.1363 
     78 H78        31.3672  -41.2946  -54.5152 H         1 UNK         0.1355 
     79 H79        29.0892  -41.9637  -56.7888 H         1 UNK         0.0707 
     80 H80        29.1587  -41.9891  -55.0406 H         1 UNK         0.0707 
     81 H81        27.0428  -42.8694  -54.4681 H         1 UNK         0.1034 
     82 H82        26.3447  -42.9629  -56.0565 H         1 UNK         0.1034 
     83 H83        26.5445  -45.3648  -54.1512 H         1 UNK         0.0482 
     84 H84        25.9469  -43.1414  -52.7033 H         1 UNK         0.3460 
     85 H85        24.2523  -43.1742  -52.3021 H         1 UNK         0.3460 
     86 H86        25.7483  -46.6280  -55.7500 H         1 UNK         0.2989 
     87 H87        23.5448  -47.0579  -57.1295 H         1 UNK         0.0559 
     88 H88        22.5191  -45.4279  -58.6740 H         1 UNK         0.0848 
     89 H89        22.9616  -46.8839  -59.5480 H         1 UNK         0.0848 
     90 H90        23.9503  -45.4309  -59.6922 H         1 UNK         0.0848 
     91 H91        25.1224  -48.3964  -57.8876 H         1 UNK         0.3144 
     92 H92        26.6139  -49.0485  -60.0351 H         1 UNK         0.0727 
     93 H93        29.0949  -47.3668  -59.4214 H         1 UNK         0.0790 
     94 H94        28.3209  -47.5832  -60.9816 H         1 UNK         0.0790 
     95 H95        29.1209  -48.9432  -60.2094 H         1 UNK         0.0790 
     96 H96        28.2473  -48.9064  -57.5689 H         1 UNK         0.3215 
     97 H97        26.1572  -51.1158  -55.7933 H         1 UNK         0.0863 
     98 H98        28.0617  -52.7029  -55.6312 H         1 UNK         0.0808 
     99 H99        28.8024  -52.0011  -57.0689 H         1 UNK         0.0808 
    100 H100       27.2746  -52.8625  -57.1931 H         1 UNK         0.0808 
    101 H101       28.8008  -50.3373  -55.1885 H         1 UNK         0.3118 
    102 H102       28.2174  -46.9725  -54.2129 H         1 UNK         0.0546 
    103 H103       28.8787  -49.4918  -52.5948 H         1 UNK         0.0828 
    104 H104       27.6024  -48.3410  -52.2197 H         1 UNK         0.0828 
    105 H105       29.2856  -47.8435  -52.1326 H         1 UNK         0.0828 
    106 H106       30.6037  -48.4163  -54.1397 H         1 UNK         0.3005 
    107 H107       31.6578  -47.8090  -57.5346 H         1 UNK         0.1257 
    108 H108       31.9861  -45.9584  -55.5727 H         1 UNK         0.0775 
    109 H109       32.9046  -47.2056  -54.8336 H         1 UNK         0.0775 
    110 H110       34.2395  -44.6598  -58.3927 H         1 UNK         0.0840 
    111 H111       32.6646  -45.4025  -58.5179 H         1 UNK         0.0840 
    112 H112       32.6738  -49.3969  -55.3251 H         1 UNK         0.2987 
    113 H113       31.3973  -52.4868  -56.4102 H         1 UNK         0.0785 
    114 H114       33.3619  -52.2557  -57.9373 H         1 UNK         0.0798 
    115 H115       33.7848  -53.1748  -56.5030 H         1 UNK         0.0798 
    116 H116       34.2913  -51.4913  -56.6558 H         1 UNK         0.0798 
    117 H117       33.2928  -51.7601  -54.3872 H         1 UNK         0.3079 
    118 H118       30.8963  -51.0044  -51.8373 H         1 UNK         0.0794 
    119 H119       32.2413  -52.7329  -50.6946 H         1 UNK         0.0786 
    120 H120       32.9387  -53.2595  -52.2265 H         1 UNK         0.0786 
    121 H121       31.2237  -53.4843  -51.9108 H         1 UNK         0.0786 
    122 H122       33.7168  -50.9115  -51.7273 H         1 UNK         0.3032 
    123 H123       34.4830  -48.6142  -51.1557 H         1 UNK         0.1094 
    124 H124       34.9392  -48.5122  -54.2117 H         1 UNK         0.0794 
    125 H125       36.1524  -48.1356  -52.9935 H         1 UNK         0.0794 
    126 H126       35.5396  -49.7714  -53.1399 H         1 UNK         0.0794 
    127 H127       32.8676  -46.8394  -52.6844 H         1 UNK         0.3016 
@<TRIPOS>BOND
     1    1    2 1    
     2    1   67 1    
     3    1   68 1    
     4    1   69 1    
     5    2    3 2    
     6    2    4 am   BACKBONE|DICT|INTERRES
     7    4    5 1    
     8    4   70 1    
     9    5    6 1    
    10    5   65 1    
    11    5   71 1    
    12    6    7 1    
    13    6   72 1    
    14    6   73 1    
    15    7    8 1    
    16    8    9 1    
    17    8   74 1    
    18    8   75 1    
    19    9   10 ar   
    20    9   14 ar   
    21   10   11 ar   
    22   10   76 1    
    23   11   12 ar   
    24   11   48 1    
    25   12   13 ar   
    26   12   77 1    
    27   13   14 ar   
    28   13   15 1    
    29   14   78 1    
    30   15   16 1    
    31   15   79 1    
    32   15   80 1    
    33   16   17 1    
    34   17   18 1    
    35   17   81 1    
    36   17   82 1    
    37   18   19 1    
    38   18   22 1    
    39   18   83 1    
    40   19   20 am   BACKBONE|DICT|INTERRES
    41   19   21 2    
    42   20   84 1    
    43   20   85 1    
    44   22   23 am   BACKBONE|DICT|INTERRES
    45   22   86 1    
    46   23   24 2    
    47   23   25 1    
    48   25   26 1    
    49   25   27 1    
    50   25   87 1    
    51   26   88 1    
    52   26   89 1    
    53   26   90 1    
    54   27   28 am   BACKBONE|DICT|INTERRES
    55   27   91 1    
    56   28   29 2    
    57   28   30 1    
    58   30   31 1    
    59   30   32 1    
    60   30   92 1    
    61   31   93 1    
    62   31   94 1    
    63   31   95 1    
    64   32   33 am   BACKBONE|DICT|INTERRES
    65   32   96 1    
    66   33   34 2    
    67   33   35 1    
    68   35   36 1    
    69   35   37 1    
    70   35   97 1    
    71   36   98 1    
    72   36   99 1    
    73   36  100 1    
    74   37   38 am   BACKBONE|DICT|INTERRES
    75   37  101 1    
    76   38   39 2    
    77   38   40 1    
    78   40   41 1    
    79   40   42 1    
    80   40  102 1    
    81   41  103 1    
    82   41  104 1    
    83   41  105 1    
    84   42   43 am   BACKBONE|DICT|INTERRES
    85   42  106 1    
    86   43   44 2    
    87   43   45 1    
    88   45   46 1    
    89   45   49 1    
    90   45  107 1    
    91   46   47 1    
    92   46  108 1    
    93   46  109 1    
    94   47   48 1    
    95   48  110 1    
    96   48  111 1    
    97   49   50 am   BACKBONE|DICT|INTERRES
    98   49  112 1    
    99   50   51 2    
   100   50   52 1    
   101   52   53 1    
   102   52   54 1    
   103   52  113 1    
   104   53  114 1    
   105   53  115 1    
   106   53  116 1    
   107   54   55 am   BACKBONE|DICT|INTERRES
   108   54  117 1    
   109   55   56 2    
   110   55   57 1    
   111   57   58 1    
   112   57   59 1    
   113   57  118 1    
   114   58  119 1    
   115   58  120 1    
   116   58  121 1    
   117   59   60 am   BACKBONE|DICT|INTERRES
   118   59  122 1    
   119   60   61 2    
   120   60   62 1    
   121   62   63 1    
   122   62   64 1    
   123   62  123 1    
   124   63  124 1    
   125   63  125 1    
   126   63  126 1    
   127   64   65 am   BACKBONE|DICT|INTERRES
   128   64  127 1    
   129   65   66 2    
@<TRIPOS>SUBSTRUCTURE
     1 UNK         1 GROUP             0       ****    0 ROOT    
