@<TRIPOS>MOLECULE
3R134
127   129    1
SMALL
USER_CHARGES


@<TRIPOS>ATOM
      1 CA         31.9032  -45.7274  -50.1473 C.3       0 UNK        -0.1968 
      2 C          31.5909  -45.1937  -51.5429 C.2       0 UNK         0.4852 
      3 O          30.4298  -45.2130  -51.9442 O.2       0 UNK        -0.5359 
      4 N          32.5762  -44.7082  -52.3120 N.am      1 UNK        -0.4300 
      5 CA         33.9898  -44.5495  -51.9381 C.3       1 UNK         0.0863 
      6 C6         34.6747  -43.4018  -52.7245 C.3       11 UNK        -0.0953 
      7 S7         33.8364  -41.7917  -52.5029 S.3       11 UNK        -0.2369 
      8 C8         33.4283  -41.3072  -54.2123 C.3       11 UNK         0.0226 
      9 C9         32.2927  -42.1402  -54.7881 C.ar      11 UNK        -0.0699 
     10 C10        32.5761  -43.2812  -55.5434 C.ar      11 UNK        -0.0804 
     11 C11        31.5417  -44.0781  -56.0362 C.ar      11 UNK        -0.0871 
     12 C12        30.2171  -43.7057  -55.8082 C.ar      11 UNK        -0.1008 
     13 C13        29.9170  -42.5519  -55.0831 C.ar      11 UNK        -0.0735 
     14 C14        30.9595  -41.7743  -54.5668 C.ar      11 UNK        -0.0945 
     15 C15        28.4637  -42.1795  -54.8308 C.3       11 UNK         0.0169 
     16 S16        27.8420  -40.9187  -55.9916 S.3       11 UNK        -0.2669 
     17 C17        27.9538  -41.7201  -57.6325 C.3       11 UNK        -0.0850 
     18 CA         26.6783  -42.5199  -58.0093 C.3       10 UNK         0.0855 
     19 C          26.5970  -42.7521  -59.5428 C.2       10 UNK         0.5543 
     20 N          26.0104  -41.8172  -60.2775 N.am      10 UNK        -0.7343 
     21 O          27.0916  -43.7439  -60.0754 O.2       10 UNK        -0.5027 
     22 N          26.6088  -43.7888  -57.2743 N.am      10 UNK        -0.4495 
     23 C          25.4954  -44.4971  -57.0685 C.2       10 UNK         0.4903 
     24 O          24.3695  -44.1272  -57.4067 O.2       10 UNK        -0.4860 
     25 CA         25.6877  -45.8578  -56.3766 C.3       9 UNK         0.0227 
     26 CB         24.3987  -46.3663  -55.7061 C.3       9 UNK        -0.1964 
     27 N          26.1654  -46.8761  -57.3117 N.am      9 UNK        -0.4231 
     28 C          27.4051  -46.9714  -57.8061 C.2       9 UNK         0.5014 
     29 O          28.3111  -46.1806  -57.5367 O.2       9 UNK        -0.5270 
     30 CA         27.6794  -48.1840  -58.7175 C.3       8 UNK         0.0284 
     31 CB         29.0891  -48.1595  -59.3393 C.3       8 UNK        -0.1977 
     32 N          27.4931  -49.4489  -57.9987 N.am      8 UNK        -0.4342 
     33 C          26.3081  -50.0197  -57.7370 C.2       8 UNK         0.5039 
     34 O          25.2300  -49.5391  -58.0905 O.2       8 UNK        -0.5547 
     35 CA         26.3262  -51.3118  -56.9089 C.3       7 UNK         0.0281 
     36 CB         26.9415  -52.4765  -57.7035 C.3       7 UNK        -0.1963 
     37 N          27.0763  -51.1005  -55.6719 N.am      7 UNK        -0.4444 
     38 C          26.5324  -50.7225  -54.5049 C.2       7 UNK         0.5104 
     39 O          25.3204  -50.6358  -54.3064 O.2       7 UNK        -0.5100 
     40 CA         27.5074  -50.3567  -53.3675 C.3       6 UNK         0.0396 
     41 CB         27.8263  -51.5912  -52.5106 C.3       6 UNK        -0.1801 
     42 N          28.7547  -49.7791  -53.8724 N.am      6 UNK        -0.4747 
     43 C          28.8377  -48.5944  -54.4996 C.2       6 UNK         0.5012 
     44 O          27.9138  -47.7832  -54.5233 O.2       6 UNK        -0.5003 
     45 CA         30.1336  -48.2847  -55.2782 C.3       5 UNK         0.0782 
     46 C46        30.8502  -47.0357  -54.7261 C.3       11 UNK        -0.0868 
     47 S47        32.3933  -46.6605  -55.6323 S.3       11 UNK        -0.2515 
     48 C48        31.8562  -45.3614  -56.7835 C.3       11 UNK         0.0199 
     49 N          31.0300  -49.4399  -55.3681 N.am      5 UNK        -0.4607 
     50 C          30.8361  -50.5053  -56.1536 C.2       4 UNK         0.5031 
     51 O          29.8361  -50.6482  -56.8590 O.2       4 UNK        -0.5119 
     52 CA         31.9147  -51.6028  -56.1275 C.3       4 UNK         0.0263 
     53 CB         32.8366  -51.4648  -57.3490 C.3       4 UNK        -0.1967 
     54 N          32.7273  -51.5946  -54.9049 N.am      4 UNK        -0.4237 
     55 C          32.2685  -51.9070  -53.6838 C.2       3 UNK         0.4908 
     56 O          31.1154  -52.2783  -53.4634 O.2       3 UNK        -0.5102 
     57 CA         33.2461  -51.7363  -52.5059 C.3       3 UNK         0.0241 
     58 CB         34.0718  -53.0168  -52.3019 C.3       3 UNK        -0.1971 
     59 N          34.1493  -50.5832  -52.6331 N.am      3 UNK        -0.4139 
     60 C          33.7475  -49.3066  -52.7119 C.2       2 UNK         0.5016 
     61 O          32.5629  -48.9686  -52.7308 O.2       2 UNK        -0.5319 
     62 CA         34.8438  -48.2359  -52.8063 C.3       2 UNK         0.0286 
     63 CB         35.5909  -48.3150  -54.1506 C.3       2 UNK        -0.1963 
     64 N          34.2416  -46.9087  -52.6622 N.am      2 UNK        -0.4790 
     65 C          34.8081  -45.8577  -52.0558 C.2       1 UNK         0.5024 
     66 O          35.9425  -45.8923  -51.5770 O.2       1 UNK        -0.4888 
     67 H67        32.2588  -44.9293  -49.4965 H         1 UNK         0.0892 
     68 H68        31.0066  -46.1486  -49.6930 H         1 UNK         0.0892 
     69 H69        32.6519  -46.5176  -50.1835 H         1 UNK         0.0892 
     70 H70        32.3338  -44.3518  -53.2268 H         1 UNK         0.3107 
     71 H71        34.0312  -44.2659  -50.8852 H         1 UNK         0.0773 
     72 H72        34.7486  -43.6490  -53.7829 H         1 UNK         0.0680 
     73 H73        35.7029  -43.2713  -52.3815 H         1 UNK         0.0680 
     74 H74        34.3196  -41.3853  -54.8370 H         1 UNK         0.0650 
     75 H75        33.1461  -40.2534  -54.2182 H         1 UNK         0.0650 
     76 H76        33.6013  -43.5695  -55.7299 H         1 UNK         0.1397 
     77 H77        29.4168  -44.3263  -56.1834 H         1 UNK         0.1363 
     78 H78        30.7329  -40.8895  -53.9876 H         1 UNK         0.1355 
     79 H79        27.8266  -43.0635  -54.8768 H         1 UNK         0.0707 
     80 H80        28.3630  -41.7948  -53.8149 H         1 UNK         0.0707 
     81 H81        28.1128  -40.9095  -58.3467 H         1 UNK         0.1034 
     82 H82        28.8466  -42.3408  -57.7061 H         1 UNK         0.1034 
     83 H83        25.8093  -41.9221  -57.7254 H         1 UNK         0.0482 
     84 H84        25.9592  -41.9399  -61.2768 H         1 UNK         0.3460 
     85 H85        25.6087  -40.9954  -59.8531 H         1 UNK         0.3460 
     86 H86        27.4886  -44.2598  -57.1047 H         1 UNK         0.2989 
     87 H87        26.4373  -45.7287  -55.5929 H         1 UNK         0.0559 
     88 H88        24.0111  -45.6319  -54.9989 H         1 UNK         0.0848 
     89 H89        24.5814  -47.2863  -55.1496 H         1 UNK         0.0848 
     90 H90        23.6123  -46.5659  -56.4351 H         1 UNK         0.0848 
     91 H91        25.5077  -47.6029  -57.5779 H         1 UNK         0.3144 
     92 H92        26.9608  -48.1361  -59.5387 H         1 UNK         0.0727 
     93 H93        29.2244  -48.9821  -60.0417 H         1 UNK         0.0790 
     94 H94        29.8738  -48.2340  -58.5868 H         1 UNK         0.0790 
     95 H95        29.2548  -47.2332  -59.8912 H         1 UNK         0.0790 
     96 H96        28.3374  -49.9016  -57.6534 H         1 UNK         0.3215 
     97 H97        25.2923  -51.5768  -56.6759 H         1 UNK         0.0863 
     98 H98        26.9035  -53.4047  -57.1332 H         1 UNK         0.0808 
     99 H99        27.9829  -52.2921  -57.9691 H         1 UNK         0.0808 
    100 H100       26.3938  -52.6450  -58.6317 H         1 UNK         0.0808 
    101 H101       28.0858  -51.1102  -55.7528 H         1 UNK         0.3118 
    102 H102       27.0202  -49.6142  -52.7320 H         1 UNK         0.0546 
    103 H103       28.3149  -52.3733  -53.0932 H         1 UNK         0.0828 
    104 H104       26.9155  -52.0189  -52.0895 H         1 UNK         0.0828 
    105 H105       28.4811  -51.3378  -51.6767 H         1 UNK         0.0828 
    106 H106       29.5721  -50.3759  -53.8618 H         1 UNK         0.3005 
    107 H107       29.8154  -48.0413  -56.2917 H         1 UNK         0.1257 
    108 H108       31.0964  -47.1776  -53.6757 H         1 UNK         0.0775 
    109 H109       30.1819  -46.1757  -54.7513 H         1 UNK         0.0775 
    110 H110       32.6493  -45.1772  -57.5095 H         1 UNK         0.0840 
    111 H111       30.9929  -45.7101  -57.3527 H         1 UNK         0.0840 
    112 H112       31.8428  -49.4035  -54.7661 H         1 UNK         0.2987 
    113 H113       31.4017  -52.5650  -56.1890 H         1 UNK         0.0785 
    114 H114       32.2621  -51.4944  -58.2761 H         1 UNK         0.0798 
    115 H115       33.5619  -52.2774  -57.3939 H         1 UNK         0.0798 
    116 H116       33.3857  -50.5221  -57.3366 H         1 UNK         0.0798 
    117 H117       33.6888  -51.3007  -54.9962 H         1 UNK         0.3079 
    118 H118       32.6419  -51.5770  -51.6100 H         1 UNK         0.0794 
    119 H119       34.6885  -52.9533  -51.4051 H         1 UNK         0.0786 
    120 H120       34.7293  -53.2149  -53.1494 H         1 UNK         0.0786 
    121 H121       33.4220  -53.8853  -52.1837 H         1 UNK         0.0786 
    122 H122       35.1396  -50.7828  -52.6254 H         1 UNK         0.3032 
    123 H123       35.5456  -48.4118  -51.9876 H         1 UNK         0.1094 
    124 H124       34.9134  -48.1976  -54.9969 H         1 UNK         0.0794 
    125 H125       36.3523  -47.5384  -54.2254 H         1 UNK         0.0794 
    126 H126       36.0989  -49.2725  -54.2689 H         1 UNK         0.0794 
    127 H127       33.2868  -46.8410  -52.9934 H         1 UNK         0.3016 
@<TRIPOS>BOND
     1    1    2 1    
     2    1   67 1    
     3    1   68 1    
     4    1   69 1    
     5    2    3 2    
     6    2    4 am   BACKBONE|DICT|INTERRES
     7    4    5 1    
     8    4   70 1    
     9    5    6 1    
    10    5   65 1    
    11    5   71 1    
    12    6    7 1    
    13    6   72 1    
    14    6   73 1    
    15    7    8 1    
    16    8    9 1    
    17    8   74 1    
    18    8   75 1    
    19    9   10 ar   
    20    9   14 ar   
    21   10   11 ar   
    22   10   76 1    
    23   11   12 ar   
    24   11   48 1    
    25   12   13 ar   
    26   12   77 1    
    27   13   14 ar   
    28   13   15 1    
    29   14   78 1    
    30   15   16 1    
    31   15   79 1    
    32   15   80 1    
    33   16   17 1    
    34   17   18 1    
    35   17   81 1    
    36   17   82 1    
    37   18   19 1    
    38   18   22 1    
    39   18   83 1    
    40   19   20 am   BACKBONE|DICT|INTERRES
    41   19   21 2    
    42   20   84 1    
    43   20   85 1    
    44   22   23 am   BACKBONE|DICT|INTERRES
    45   22   86 1    
    46   23   24 2    
    47   23   25 1    
    48   25   26 1    
    49   25   27 1    
    50   25   87 1    
    51   26   88 1    
    52   26   89 1    
    53   26   90 1    
    54   27   28 am   BACKBONE|DICT|INTERRES
    55   27   91 1    
    56   28   29 2    
    57   28   30 1    
    58   30   31 1    
    59   30   32 1    
    60   30   92 1    
    61   31   93 1    
    62   31   94 1    
    63   31   95 1    
    64   32   33 am   BACKBONE|DICT|INTERRES
    65   32   96 1    
    66   33   34 2    
    67   33   35 1    
    68   35   36 1    
    69   35   37 1    
    70   35   97 1    
    71   36   98 1    
    72   36   99 1    
    73   36  100 1    
    74   37   38 am   BACKBONE|DICT|INTERRES
    75   37  101 1    
    76   38   39 2    
    77   38   40 1    
    78   40   41 1    
    79   40   42 1    
    80   40  102 1    
    81   41  103 1    
    82   41  104 1    
    83   41  105 1    
    84   42   43 am   BACKBONE|DICT|INTERRES
    85   42  106 1    
    86   43   44 2    
    87   43   45 1    
    88   45   46 1    
    89   45   49 1    
    90   45  107 1    
    91   46   47 1    
    92   46  108 1    
    93   46  109 1    
    94   47   48 1    
    95   48  110 1    
    96   48  111 1    
    97   49   50 am   BACKBONE|DICT|INTERRES
    98   49  112 1    
    99   50   51 2    
   100   50   52 1    
   101   52   53 1    
   102   52   54 1    
   103   52  113 1    
   104   53  114 1    
   105   53  115 1    
   106   53  116 1    
   107   54   55 am   BACKBONE|DICT|INTERRES
   108   54  117 1    
   109   55   56 2    
   110   55   57 1    
   111   57   58 1    
   112   57   59 1    
   113   57  118 1    
   114   58  119 1    
   115   58  120 1    
   116   58  121 1    
   117   59   60 am   BACKBONE|DICT|INTERRES
   118   59  122 1    
   119   60   61 2    
   120   60   62 1    
   121   62   63 1    
   122   62   64 1    
   123   62  123 1    
   124   63  124 1    
   125   63  125 1    
   126   63  126 1    
   127   64   65 am   BACKBONE|DICT|INTERRES
   128   64  127 1    
   129   65   66 2    
@<TRIPOS>SUBSTRUCTURE
     1 UNK         1 GROUP             0       ****    0 ROOT    
