@<TRIPOS>MOLECULE
3R134
127   129    1
SMALL
USER_CHARGES


@<TRIPOS>ATOM
      1 CA         38.0745  -41.4707  -54.4598 C.3       0 UNK        -0.1968 
      2 C          37.1323  -42.3832  -53.6878 C.2       0 UNK         0.4852 
      3 O          37.0670  -42.2898  -52.4609 O.2       0 UNK        -0.5359 
      4 N          36.4063  -43.2561  -54.4008 N.am      1 UNK        -0.4300 
      5 CA         35.4631  -44.2474  -53.8687 C.3       1 UNK         0.0863 
      6 C6         34.1774  -43.6106  -53.2570 C.3       11 UNK        -0.0953 
      7 S7         33.0448  -43.0104  -54.5532 S.3       11 UNK        -0.2369 
      8 C8         32.1820  -44.5496  -55.0242 C.3       11 UNK         0.0226 
      9 C9         31.0651  -44.9227  -54.0575 C.ar      11 UNK        -0.0699 
     10 C10        31.3242  -45.7048  -52.9279 C.ar      11 UNK        -0.0804 
     11 C11        30.2959  -46.0539  -52.0475 C.ar      11 UNK        -0.0871 
     12 C12        28.9853  -45.6562  -52.3305 C.ar      11 UNK        -0.1008 
     13 C13        28.7072  -44.9127  -53.4817 C.ar      11 UNK        -0.0735 
     14 C14        29.7540  -44.5230  -54.3227 C.ar      11 UNK        -0.0945 
     15 C15        27.2736  -44.5537  -53.8408 C.3       11 UNK         0.0169 
     16 S16        26.3898  -45.9487  -54.6186 S.3       11 UNK        -0.2669 
     17 C17        27.4576  -46.3628  -56.0440 C.3       11 UNK        -0.0850 
     18 CA         27.3472  -45.3697  -57.2293 C.3       10 UNK         0.0855 
     19 C          28.4412  -45.6671  -58.2980 C.2       10 UNK         0.5543 
     20 N          28.1027  -46.0617  -59.5209 N.am      10 UNK        -0.7343 
     21 O          29.6262  -45.5184  -58.0129 O.2       10 UNK        -0.5027 
     22 N          25.9790  -45.3014  -57.7674 N.am      10 UNK        -0.4495 
     23 C          25.5143  -44.2881  -58.5122 C.2       10 UNK         0.4903 
     24 O          26.1487  -43.2509  -58.7139 O.2       10 UNK        -0.4860 
     25 CA         24.1140  -44.4553  -59.1444 C.3       9 UNK         0.0227 
     26 CB         23.9280  -43.5863  -60.4069 C.3       9 UNK        -0.1964 
     27 N          23.7492  -45.8506  -59.4248 N.am      9 UNK        -0.4231 
     28 C          24.4134  -46.7255  -60.1946 C.2       9 UNK         0.5014 
     29 O          25.4423  -46.4646  -60.8221 O.2       9 UNK        -0.5270 
     30 CA         23.8676  -48.1651  -60.2007 C.3       8 UNK         0.0284 
     31 CB         23.6533  -48.6701  -61.6378 C.3       8 UNK        -0.1977 
     32 N          24.7542  -49.0911  -59.4867 N.am      8 UNK        -0.4342 
     33 C          25.1706  -48.9468  -58.2211 C.2       8 UNK         0.5039 
     34 O          24.8412  -48.0020  -57.4973 O.2       8 UNK        -0.5547 
     35 CA         26.1378  -50.0227  -57.6908 C.3       7 UNK         0.0281 
     36 CB         27.5247  -49.8733  -58.3403 C.3       7 UNK        -0.1963 
     37 N          26.2847  -49.9295  -56.2367 N.am      7 UNK        -0.4444 
     38 C          25.3441  -50.2776  -55.3478 C.2       7 UNK         0.5104 
     39 O          24.3239  -50.8993  -55.6514 O.2       7 UNK        -0.5100 
     40 CA         25.5438  -49.8222  -53.8853 C.3       6 UNK         0.0396 
     41 CB         25.0883  -50.8904  -52.8681 C.3       6 UNK        -0.1801 
     42 N          26.8918  -49.3233  -53.5723 N.am      6 UNK        -0.4747 
     43 C          28.0305  -50.0307  -53.5474 C.2       6 UNK         0.5012 
     44 O          28.0966  -51.2409  -53.7757 O.2       6 UNK        -0.5003 
     45 CA         29.3130  -49.2531  -53.1949 C.3       5 UNK         0.0782 
     46 C46        29.6066  -49.3518  -51.6771 C.3       11 UNK        -0.0868 
     47 S47        31.1695  -48.5462  -51.1858 S.3       11 UNK        -0.2515 
     48 C48        30.6109  -46.8584  -50.7938 C.3       11 UNK         0.0199 
     49 N          30.4385  -49.7117  -54.0086 N.am      5 UNK        -0.4607 
     50 C          30.5554  -49.5158  -55.3270 C.2       4 UNK         0.5031 
     51 O          29.7000  -48.9408  -56.0022 O.2       4 UNK        -0.5119 
     52 CA         31.8330  -50.0647  -55.9969 C.3       4 UNK         0.0263 
     53 CB         32.1854  -49.3111  -57.2980 C.3       4 UNK        -0.1967 
     54 N          32.9946  -50.1371  -55.0927 N.am      4 UNK        -0.4237 
     55 C          33.6143  -49.1082  -54.4946 C.2       3 UNK         0.4908 
     56 O          33.3010  -47.9240  -54.6428 O.2       3 UNK        -0.5102 
     57 CA         34.7948  -49.4597  -53.5791 C.3       3 UNK         0.0241 
     58 CB         36.0418  -49.8303  -54.4063 C.3       3 UNK        -0.1971 
     59 N          35.0632  -48.2894  -52.7518 N.am      3 UNK        -0.4139 
     60 C          35.8315  -48.2094  -51.6602 C.2       2 UNK         0.5016 
     61 O          36.4323  -49.1712  -51.1780 O.2       2 UNK        -0.5319 
     62 CA         35.9290  -46.8229  -50.9822 C.3       2 UNK         0.0286 
     63 CB         37.3030  -46.5802  -50.3208 C.3       2 UNK        -0.1963 
     64 N          35.5551  -45.7028  -51.8641 N.am      2 UNK        -0.4790 
     65 C          36.1768  -45.2998  -52.9854 C.2       1 UNK         0.5024 
     66 O          37.2422  -45.7780  -53.3808 O.2       1 UNK        -0.4888 
     67 H67        37.8180  -40.4273  -54.2785 H         1 UNK         0.0892 
     68 H68        39.1020  -41.6310  -54.1343 H         1 UNK         0.0892 
     69 H69        38.0276  -41.6488  -55.5340 H         1 UNK         0.0892 
     70 H70        36.5336  -43.2889  -55.4025 H         1 UNK         0.3107 
     71 H71        35.1551  -44.8312  -54.7371 H         1 UNK         0.0773 
     72 H72        34.4292  -42.7753  -52.6025 H         1 UNK         0.0680 
     73 H73        33.6128  -44.2978  -52.6348 H         1 UNK         0.0680 
     74 H74        32.8961  -45.3682  -55.1059 H         1 UNK         0.0650 
     75 H75        31.7691  -44.4196  -56.0259 H         1 UNK         0.0650 
     76 H76        32.3256  -46.0594  -52.7343 H         1 UNK         0.1397 
     77 H77        28.1776  -45.9420  -51.6703 H         1 UNK         0.1363 
     78 H78        29.5435  -43.9420  -55.2102 H         1 UNK         0.1355 
     79 H79        27.2482  -43.6928  -54.5106 H         1 UNK         0.0707 
     80 H80        26.7354  -44.2526  -52.9409 H         1 UNK         0.0707 
     81 H81        28.4890  -46.4596  -55.7031 H         1 UNK         0.1034 
     82 H82        27.1858  -47.3600  -56.3829 H         1 UNK         0.1034 
     83 H83        27.5893  -44.3797  -56.8396 H         1 UNK         0.0482 
     84 H84        27.1313  -46.1576  -59.7975 H         1 UNK         0.3460 
     85 H85        28.8304  -46.2377  -60.1943 H         1 UNK         0.3460 
     86 H86        25.4156  -46.1401  -57.6508 H         1 UNK         0.2989 
     87 H87        23.4047  -44.1026  -58.3945 H         1 UNK         0.0559 
     88 H88        24.6503  -43.8425  -61.1828 H         1 UNK         0.0848 
     89 H89        24.0580  -42.5276  -60.1790 H         1 UNK         0.0848 
     90 H90        22.9290  -43.7034  -60.8269 H         1 UNK         0.0848 
     91 H91        22.9543  -46.1985  -58.9055 H         1 UNK         0.3144 
     92 H92        22.9013  -48.1787  -59.6922 H         1 UNK         0.0727 
     93 H93        24.5924  -48.7301  -62.1900 H         1 UNK         0.0790 
     94 H94        22.9935  -48.0005  -62.1912 H         1 UNK         0.0790 
     95 H95        23.1928  -49.6581  -61.6487 H         1 UNK         0.0790 
     96 H96        25.0968  -49.8779  -60.0189 H         1 UNK         0.3215 
     97 H97        25.7325  -51.0064  -57.9374 H         1 UNK         0.0863 
     98 H98        28.2282  -50.6080  -57.9478 H         1 UNK         0.0808 
     99 H99        27.9493  -48.8835  -58.1688 H         1 UNK         0.0808 
    100 H100       27.4758  -50.0204  -59.4197 H         1 UNK         0.0808 
    101 H101       27.0931  -49.4298  -55.8963 H         1 UNK         0.3118 
    102 H102       24.8852  -48.9612  -53.7620 H         1 UNK         0.0546 
    103 H103       25.6399  -51.8237  -52.9822 H         1 UNK         0.0828 
    104 H104       24.0309  -51.1253  -52.9956 H         1 UNK         0.0828 
    105 H105       25.2187  -50.5449  -51.8428 H         1 UNK         0.0828 
    106 H106       26.9384  -48.3286  -53.3913 H         1 UNK         0.3005 
    107 H107       29.1523  -48.2043  -53.4508 H         1 UNK         0.1257 
    108 H108       29.6719  -50.3980  -51.3713 H         1 UNK         0.0775 
    109 H109       28.7866  -48.9216  -51.0989 H         1 UNK         0.0775 
    110 H110       29.7510  -46.9005  -50.1236 H         1 UNK         0.0840 
    111 H111       31.4009  -46.3499  -50.2392 H         1 UNK         0.0840 
    112 H112       31.1735  -50.1974  -53.5186 H         1 UNK         0.2987 
    113 H113       31.6006  -51.0946  -56.2716 H         1 UNK         0.0785 
    114 H114       31.3802  -49.3961  -58.0289 H         1 UNK         0.0798 
    115 H115       33.0861  -49.7140  -57.7606 H         1 UNK         0.0798 
    116 H116       32.3448  -48.2472  -57.1187 H         1 UNK         0.0798 
    117 H117       33.3356  -51.0701  -54.9038 H         1 UNK         0.3079 
    118 H118       34.5083  -50.2920  -52.9332 H         1 UNK         0.0794 
    119 H119       35.8486  -50.6876  -55.0521 H         1 UNK         0.0786 
    120 H120       36.8827  -50.0962  -53.7658 H         1 UNK         0.0786 
    121 H121       36.3581  -49.0041  -55.0446 H         1 UNK         0.0786 
    122 H122       34.5699  -47.4650  -53.0714 H         1 UNK         0.3032 
    123 H123       35.1846  -46.8389  -50.1842 H         1 UNK         0.1094 
    124 H124       38.1192  -46.6481  -51.0403 H         1 UNK         0.0794 
    125 H125       37.3498  -45.5978  -49.8510 H         1 UNK         0.0794 
    126 H126       37.4979  -47.3192  -49.5427 H         1 UNK         0.0794 
    127 H127       34.7006  -45.2270  -51.6097 H         1 UNK         0.3016 
@<TRIPOS>BOND
     1    1    2 1    
     2    1   67 1    
     3    1   68 1    
     4    1   69 1    
     5    2    3 2    
     6    2    4 am   BACKBONE|DICT|INTERRES
     7    4    5 1    
     8    4   70 1    
     9    5    6 1    
    10    5   65 1    
    11    5   71 1    
    12    6    7 1    
    13    6   72 1    
    14    6   73 1    
    15    7    8 1    
    16    8    9 1    
    17    8   74 1    
    18    8   75 1    
    19    9   10 ar   
    20    9   14 ar   
    21   10   11 ar   
    22   10   76 1    
    23   11   12 ar   
    24   11   48 1    
    25   12   13 ar   
    26   12   77 1    
    27   13   14 ar   
    28   13   15 1    
    29   14   78 1    
    30   15   16 1    
    31   15   79 1    
    32   15   80 1    
    33   16   17 1    
    34   17   18 1    
    35   17   81 1    
    36   17   82 1    
    37   18   19 1    
    38   18   22 1    
    39   18   83 1    
    40   19   20 am   BACKBONE|DICT|INTERRES
    41   19   21 2    
    42   20   84 1    
    43   20   85 1    
    44   22   23 am   BACKBONE|DICT|INTERRES
    45   22   86 1    
    46   23   24 2    
    47   23   25 1    
    48   25   26 1    
    49   25   27 1    
    50   25   87 1    
    51   26   88 1    
    52   26   89 1    
    53   26   90 1    
    54   27   28 am   BACKBONE|DICT|INTERRES
    55   27   91 1    
    56   28   29 2    
    57   28   30 1    
    58   30   31 1    
    59   30   32 1    
    60   30   92 1    
    61   31   93 1    
    62   31   94 1    
    63   31   95 1    
    64   32   33 am   BACKBONE|DICT|INTERRES
    65   32   96 1    
    66   33   34 2    
    67   33   35 1    
    68   35   36 1    
    69   35   37 1    
    70   35   97 1    
    71   36   98 1    
    72   36   99 1    
    73   36  100 1    
    74   37   38 am   BACKBONE|DICT|INTERRES
    75   37  101 1    
    76   38   39 2    
    77   38   40 1    
    78   40   41 1    
    79   40   42 1    
    80   40  102 1    
    81   41  103 1    
    82   41  104 1    
    83   41  105 1    
    84   42   43 am   BACKBONE|DICT|INTERRES
    85   42  106 1    
    86   43   44 2    
    87   43   45 1    
    88   45   46 1    
    89   45   49 1    
    90   45  107 1    
    91   46   47 1    
    92   46  108 1    
    93   46  109 1    
    94   47   48 1    
    95   48  110 1    
    96   48  111 1    
    97   49   50 am   BACKBONE|DICT|INTERRES
    98   49  112 1    
    99   50   51 2    
   100   50   52 1    
   101   52   53 1    
   102   52   54 1    
   103   52  113 1    
   104   53  114 1    
   105   53  115 1    
   106   53  116 1    
   107   54   55 am   BACKBONE|DICT|INTERRES
   108   54  117 1    
   109   55   56 2    
   110   55   57 1    
   111   57   58 1    
   112   57   59 1    
   113   57  118 1    
   114   58  119 1    
   115   58  120 1    
   116   58  121 1    
   117   59   60 am   BACKBONE|DICT|INTERRES
   118   59  122 1    
   119   60   61 2    
   120   60   62 1    
   121   62   63 1    
   122   62   64 1    
   123   62  123 1    
   124   63  124 1    
   125   63  125 1    
   126   63  126 1    
   127   64   65 am   BACKBONE|DICT|INTERRES
   128   64  127 1    
   129   65   66 2    
@<TRIPOS>SUBSTRUCTURE
     1 UNK         1 GROUP             0       ****    0 ROOT    
