@<TRIPOS>MOLECULE
3R134
127   129    1
SMALL
USER_CHARGES


@<TRIPOS>ATOM
      1 CA         39.8416  -45.1920  -54.2811 C.3       0 UNK        -0.1968 
      2 C          38.5286  -44.4253  -54.3497 C.2       0 UNK         0.4852 
      3 O          38.5388  -43.1937  -54.3157 O.2       0 UNK        -0.5359 
      4 N          37.4039  -45.1425  -54.4470 N.am      1 UNK        -0.4300 
      5 CA         36.0580  -44.5835  -54.5506 C.3       1 UNK         0.0863 
      6 C6         35.4965  -44.1265  -53.1751 C.3       11 UNK        -0.0953 
      7 S7         33.8699  -43.3056  -53.2864 S.3       11 UNK        -0.2369 
      8 C8         32.8157  -44.5729  -52.5114 C.3       11 UNK         0.0226 
      9 C9         31.3298  -44.3614  -52.7699 C.ar      11 UNK        -0.0699 
     10 C10        30.4254  -44.4239  -51.7071 C.ar      11 UNK        -0.0804 
     11 C11        29.0509  -44.3179  -51.9351 C.ar      11 UNK        -0.0871 
     12 C12        28.5796  -44.1173  -53.2361 C.ar      11 UNK        -0.1008 
     13 C13        29.4731  -44.0540  -54.3095 C.ar      11 UNK        -0.0735 
     14 C14        30.8455  -44.1813  -54.0703 C.ar      11 UNK        -0.0945 
     15 C15        28.9573  -43.9153  -55.7335 C.3       11 UNK         0.0169 
     16 S16        28.0724  -42.3487  -56.0122 S.3       11 UNK        -0.2669 
     17 C17        28.0187  -42.3014  -57.8385 C.3       11 UNK        -0.0850 
     18 CA         26.7119  -42.8685  -58.4562 C.3       10 UNK         0.0855 
     19 C          26.7340  -42.6789  -60.0028 C.2       10 UNK         0.5543 
     20 N          26.9264  -43.7250  -60.7998 N.am      10 UNK        -0.7343 
     21 O          26.5770  -41.5594  -60.4836 O.2       10 UNK        -0.5027 
     22 N          26.4616  -44.2523  -58.0265 N.am      10 UNK        -0.4495 
     23 C          25.3315  -44.9406  -58.2313 C.2       10 UNK         0.4903 
     24 O          24.2986  -44.4362  -58.6745 O.2       10 UNK        -0.4860 
     25 CA         25.3594  -46.4461  -57.8885 C.3       9 UNK         0.0227 
     26 CB         24.4998  -47.2814  -58.8596 C.3       9 UNK        -0.1964 
     27 N          26.7078  -47.0243  -57.7733 N.am      9 UNK        -0.4231 
     28 C          27.6632  -47.0784  -58.7161 C.2       9 UNK         0.5014 
     29 O          27.5483  -46.5821  -59.8381 O.2       9 UNK        -0.5270 
     30 CA         28.9821  -47.7713  -58.3361 C.3       8 UNK         0.0284 
     31 CB         29.9436  -46.7936  -57.6455 C.3       8 UNK        -0.1977 
     32 N          28.7762  -48.9445  -57.4840 N.am      8 UNK        -0.4342 
     33 C          28.4373  -50.1536  -57.9528 C.2       8 UNK         0.5039 
     34 O          28.3409  -50.4273  -59.1499 O.2       8 UNK        -0.5547 
     35 CA         28.1326  -51.2366  -56.9069 C.3       7 UNK         0.0281 
     36 CB         29.4281  -51.8569  -56.3556 C.3       7 UNK        -0.1963 
     37 N          27.3111  -50.7133  -55.8127 N.am      7 UNK        -0.4444 
     38 C          26.0075  -50.4181  -55.9331 C.2       7 UNK         0.5104 
     39 O          25.3553  -50.6134  -56.9586 O.2       7 UNK        -0.5100 
     40 CA         25.2978  -49.8080  -54.7110 C.3       6 UNK         0.0396 
     41 CB         24.4629  -50.8780  -53.9896 C.3       6 UNK        -0.1801 
     42 N          26.2030  -49.1788  -53.7464 N.am      6 UNK        -0.4747 
     43 C          26.8674  -48.0323  -53.9508 C.2       6 UNK         0.5012 
     44 O          26.8288  -47.3919  -55.0005 O.2       6 UNK        -0.5003 
     45 CA         27.7739  -47.5609  -52.7995 C.3       5 UNK         0.0782 
     46 C46        26.9195  -46.8795  -51.6992 C.3       11 UNK        -0.0868 
     47 S47        27.9007  -46.2239  -50.3083 S.3       11 UNK        -0.2515 
     48 C48        28.0813  -44.4715  -50.7749 C.3       11 UNK         0.0199 
     49 N          28.6173  -48.6488  -52.2875 N.am      5 UNK        -0.4607 
     50 C          29.5033  -49.3255  -53.0290 C.2       4 UNK         0.5031 
     51 O          29.6849  -49.1288  -54.2357 O.2       4 UNK        -0.5119 
     52 CA         30.2828  -50.4392  -52.3248 C.3       4 UNK         0.0263 
     53 CB         29.4265  -51.7153  -52.2112 C.3       4 UNK        -0.1967 
     54 N          31.4782  -50.6929  -53.1184 N.am      4 UNK        -0.4237 
     55 C          32.5717  -51.3653  -52.7438 C.2       3 UNK         0.4908 
     56 O          32.6984  -51.9260  -51.6547 O.2       3 UNK        -0.5102 
     57 CA         33.7292  -51.4086  -53.7594 C.3       3 UNK         0.0241 
     58 CB         33.5976  -52.6419  -54.6687 C.3       3 UNK        -0.1971 
     59 N          33.8037  -50.1989  -54.5875 N.am      3 UNK        -0.4139 
     60 C          34.1803  -48.9971  -54.1304 C.2       2 UNK         0.5016 
     61 O          34.5907  -48.7895  -52.9843 O.2       2 UNK        -0.5319 
     62 CA         34.0377  -47.8221  -55.1040 C.3       2 UNK         0.0286 
     63 CB         32.5558  -47.4078  -55.2232 C.3       2 UNK        -0.1963 
     64 N          34.8425  -46.7105  -54.6012 N.am      2 UNK        -0.4790 
     65 C          35.1895  -45.6158  -55.2884 C.2       1 UNK         0.5024 
     66 O          34.8861  -45.4237  -56.4666 O.2       1 UNK        -0.4888 
     67 H67        40.3684  -44.9512  -53.3581 H         1 UNK         0.0892 
     68 H68        39.6876  -46.2705  -54.3113 H         1 UNK         0.0892 
     69 H69        40.4806  -44.9173  -55.1199 H         1 UNK         0.0892 
     70 H70        37.4571  -46.1505  -54.5102 H         1 UNK         0.3107 
     71 H71        36.1068  -43.7046  -55.1980 H         1 UNK         0.0773 
     72 H72        35.4516  -44.9603  -52.4727 H         1 UNK         0.0680 
     73 H73        36.1816  -43.4064  -52.7255 H         1 UNK         0.0680 
     74 H74        33.0254  -44.5827  -51.4406 H         1 UNK         0.0650 
     75 H75        33.0871  -45.5587  -52.8841 H         1 UNK         0.0650 
     76 H76        30.7858  -44.5938  -50.7015 H         1 UNK         0.1397 
     77 H77        27.5166  -44.0423  -53.4220 H         1 UNK         0.1363 
     78 H78        31.5413  -44.1591  -54.8979 H         1 UNK         0.1355 
     79 H79        29.7856  -43.9911  -56.4392 H         1 UNK         0.0707 
     80 H80        28.2855  -44.7482  -55.9416 H         1 UNK         0.0707 
     81 H81        28.1397  -41.2558  -58.1294 H         1 UNK         0.1034 
     82 H82        28.8904  -42.8172  -58.2456 H         1 UNK         0.1034 
     83 H83        25.8810  -42.2664  -58.0837 H         1 UNK         0.0482 
     84 H84        26.9376  -43.5883  -61.7978 H         1 UNK         0.3460 
     85 H85        27.0669  -44.6535  -60.4168 H         1 UNK         0.3460 
     86 H86        27.2538  -44.7524  -57.6582 H         1 UNK         0.2989 
     87 H87        24.9131  -46.5337  -56.8970 H         1 UNK         0.0559 
     88 H88        23.4589  -46.9560  -58.8451 H         1 UNK         0.0848 
     89 H89        24.5103  -48.3374  -58.5888 H         1 UNK         0.0848 
     90 H90        24.8532  -47.1952  -59.8877 H         1 UNK         0.0848 
     91 H91        26.9225  -47.3801  -56.8436 H         1 UNK         0.3144 
     92 H92        29.4540  -48.0879  -59.2691 H         1 UNK         0.0727 
     93 H93        29.6617  -46.6063  -56.6092 H         1 UNK         0.0790 
     94 H94        29.9791  -45.8353  -58.1658 H         1 UNK         0.0790 
     95 H95        30.9573  -47.1918  -57.6498 H         1 UNK         0.0790 
     96 H96        28.8564  -48.8171  -56.4825 H         1 UNK         0.3215 
     97 H97        27.5700  -52.0298  -57.4050 H         1 UNK         0.0863 
     98 H98        29.2159  -52.6500  -55.6389 H         1 UNK         0.0808 
     99 H99        30.0621  -51.1193  -55.8655 H         1 UNK         0.0808 
    100 H100       30.0155  -52.3003  -57.1607 H         1 UNK         0.0808 
    101 H101       27.7797  -50.4896  -54.9468 H         1 UNK         0.3118 
    102 H102       24.6167  -49.0395  -55.0834 H         1 UNK         0.0546 
    103 H103       25.0888  -51.6714  -53.5792 H         1 UNK         0.0828 
    104 H104       23.7523  -51.3454  -54.6731 H         1 UNK         0.0828 
    105 H105       23.8848  -50.4473  -53.1719 H         1 UNK         0.0828 
    106 H106       26.3163  -49.6460  -52.8580 H         1 UNK         0.3005 
    107 H107       28.4521  -46.8192  -53.2238 H         1 UNK         0.1257 
    108 H108       26.2004  -47.5874  -51.2825 H         1 UNK         0.0775 
    109 H109       26.3247  -46.0682  -52.1237 H         1 UNK         0.0775 
    110 H110       27.1062  -44.0456  -51.0166 H         1 UNK         0.0840 
    111 H111       28.4523  -43.9122  -49.9147 H         1 UNK         0.0840 
    112 H112       28.5293  -48.8556  -51.3029 H         1 UNK         0.2987 
    113 H113       30.5797  -50.0935  -51.3325 H         1 UNK         0.0785 
    114 H114       28.5175  -51.5306  -51.6375 H         1 UNK         0.0798 
    115 H115       29.9666  -52.5146  -51.7038 H         1 UNK         0.0798 
    116 H116       29.1256  -52.0878  -53.1907 H         1 UNK         0.0798 
    117 H117       31.4593  -50.2314  -54.0193 H         1 UNK         0.3079 
    118 H118       34.6609  -51.4959  -53.1958 H         1 UNK         0.0794 
    119 H119       34.4457  -52.7265  -55.3486 H         1 UNK         0.0786 
    120 H120       32.6868  -52.6093  -55.2683 H         1 UNK         0.0786 
    121 H121       33.5655  -53.5589  -54.0783 H         1 UNK         0.0786 
    122 H122       33.4988  -50.2856  -55.5467 H         1 UNK         0.3032 
    123 H123       34.4221  -48.1223  -56.0817 H         1 UNK         0.1094 
    124 H124       32.1102  -47.1991  -54.2500 H         1 UNK         0.0794 
    125 H125       32.4321  -46.5189  -55.8410 H         1 UNK         0.0794 
    126 H126       31.9634  -48.2015  -55.6792 H         1 UNK         0.0794 
    127 H127       35.1531  -46.8399  -53.6448 H         1 UNK         0.3016 
@<TRIPOS>BOND
     1    1    2 1    
     2    1   67 1    
     3    1   68 1    
     4    1   69 1    
     5    2    3 2    
     6    2    4 am   BACKBONE|DICT|INTERRES
     7    4    5 1    
     8    4   70 1    
     9    5    6 1    
    10    5   65 1    
    11    5   71 1    
    12    6    7 1    
    13    6   72 1    
    14    6   73 1    
    15    7    8 1    
    16    8    9 1    
    17    8   74 1    
    18    8   75 1    
    19    9   10 ar   
    20    9   14 ar   
    21   10   11 ar   
    22   10   76 1    
    23   11   12 ar   
    24   11   48 1    
    25   12   13 ar   
    26   12   77 1    
    27   13   14 ar   
    28   13   15 1    
    29   14   78 1    
    30   15   16 1    
    31   15   79 1    
    32   15   80 1    
    33   16   17 1    
    34   17   18 1    
    35   17   81 1    
    36   17   82 1    
    37   18   19 1    
    38   18   22 1    
    39   18   83 1    
    40   19   20 am   BACKBONE|DICT|INTERRES
    41   19   21 2    
    42   20   84 1    
    43   20   85 1    
    44   22   23 am   BACKBONE|DICT|INTERRES
    45   22   86 1    
    46   23   24 2    
    47   23   25 1    
    48   25   26 1    
    49   25   27 1    
    50   25   87 1    
    51   26   88 1    
    52   26   89 1    
    53   26   90 1    
    54   27   28 am   BACKBONE|DICT|INTERRES
    55   27   91 1    
    56   28   29 2    
    57   28   30 1    
    58   30   31 1    
    59   30   32 1    
    60   30   92 1    
    61   31   93 1    
    62   31   94 1    
    63   31   95 1    
    64   32   33 am   BACKBONE|DICT|INTERRES
    65   32   96 1    
    66   33   34 2    
    67   33   35 1    
    68   35   36 1    
    69   35   37 1    
    70   35   97 1    
    71   36   98 1    
    72   36   99 1    
    73   36  100 1    
    74   37   38 am   BACKBONE|DICT|INTERRES
    75   37  101 1    
    76   38   39 2    
    77   38   40 1    
    78   40   41 1    
    79   40   42 1    
    80   40  102 1    
    81   41  103 1    
    82   41  104 1    
    83   41  105 1    
    84   42   43 am   BACKBONE|DICT|INTERRES
    85   42  106 1    
    86   43   44 2    
    87   43   45 1    
    88   45   46 1    
    89   45   49 1    
    90   45  107 1    
    91   46   47 1    
    92   46  108 1    
    93   46  109 1    
    94   47   48 1    
    95   48  110 1    
    96   48  111 1    
    97   49   50 am   BACKBONE|DICT|INTERRES
    98   49  112 1    
    99   50   51 2    
   100   50   52 1    
   101   52   53 1    
   102   52   54 1    
   103   52  113 1    
   104   53  114 1    
   105   53  115 1    
   106   53  116 1    
   107   54   55 am   BACKBONE|DICT|INTERRES
   108   54  117 1    
   109   55   56 2    
   110   55   57 1    
   111   57   58 1    
   112   57   59 1    
   113   57  118 1    
   114   58  119 1    
   115   58  120 1    
   116   58  121 1    
   117   59   60 am   BACKBONE|DICT|INTERRES
   118   59  122 1    
   119   60   61 2    
   120   60   62 1    
   121   62   63 1    
   122   62   64 1    
   123   62  123 1    
   124   63  124 1    
   125   63  125 1    
   126   63  126 1    
   127   64   65 am   BACKBONE|DICT|INTERRES
   128   64  127 1    
   129   65   66 2    
@<TRIPOS>SUBSTRUCTURE
     1 UNK         1 GROUP             0       ****    0 ROOT    
