@<TRIPOS>MOLECULE
3R134
127   129    1
SMALL
USER_CHARGES


@<TRIPOS>ATOM
      1 CA         31.3104  -47.2429  -48.5380 C.3       0 UNK        -0.1968 
      2 C          31.9177  -47.1938  -49.9312 C.2       0 UNK         0.4852 
      3 O          31.8918  -48.2014  -50.6399 O.2       0 UNK        -0.5359 
      4 N          32.4470  -46.0277  -50.3342 N.am      1 UNK        -0.4300 
      5 CA         33.0986  -45.7753  -51.6281 C.3       1 UNK         0.0863 
      6 C6         33.5719  -44.3040  -51.7468 C.3       11 UNK        -0.0953 
      7 S7         34.9070  -44.0803  -52.9690 S.3       11 UNK        -0.2369 
      8 C8         34.2710  -42.7165  -54.0007 C.3       11 UNK         0.0226 
      9 C9         33.4079  -43.2008  -55.1596 C.ar      11 UNK        -0.0699 
     10 C10        33.9844  -43.9641  -56.1793 C.ar      11 UNK        -0.0804 
     11 C11        33.2224  -44.3975  -57.2705 C.ar      11 UNK        -0.0871 
     12 C12        31.8843  -44.0026  -57.3590 C.ar      11 UNK        -0.1008 
     13 C13        31.2912  -43.2293  -56.3550 C.ar      11 UNK        -0.0735 
     14 C14        32.0570  -42.8446  -55.2478 C.ar      11 UNK        -0.0945 
     15 C15        29.8457  -42.7581  -56.4991 C.3       11 UNK         0.0169 
     16 S16        28.6907  -44.1162  -56.8826 S.3       11 UNK        -0.2669 
     17 C17        27.1513  -43.2055  -57.2647 C.3       11 UNK        -0.0850 
     18 CA         26.0786  -43.2641  -56.1415 C.3       10 UNK         0.0855 
     19 C          24.7978  -42.4958  -56.5811 C.2       10 UNK         0.5543 
     20 N          23.6805  -43.1641  -56.8424 N.am      10 UNK        -0.7343 
     21 O          24.8241  -41.2724  -56.6888 O.2       10 UNK        -0.5027 
     22 N          25.8491  -44.6433  -55.6863 N.am      10 UNK        -0.4495 
     23 C          25.1771  -45.0206  -54.5897 C.2       10 UNK         0.4903 
     24 O          24.6277  -44.2316  -53.8203 O.2       10 UNK        -0.4860 
     25 CA         25.1611  -46.5330  -54.2680 C.3       9 UNK         0.0227 
     26 CB         23.8109  -46.9928  -53.6788 C.3       9 UNK        -0.1964 
     27 N          25.5746  -47.3939  -55.3888 N.am      9 UNK        -0.4231 
     28 C          24.9555  -47.5319  -56.5733 C.2       9 UNK         0.5014 
     29 O          23.8991  -46.9676  -56.8608 O.2       9 UNK        -0.5270 
     30 CA         25.6460  -48.3915  -57.6440 C.3       8 UNK         0.0284 
     31 CB         26.0496  -47.5159  -58.8446 C.3       8 UNK        -0.1977 
     32 N          26.8468  -49.0680  -57.1465 N.am      8 UNK        -0.4342 
     33 C          27.0043  -50.3940  -57.0392 C.2       8 UNK         0.5039 
     34 O          26.1057  -51.2121  -57.2445 O.2       8 UNK        -0.5547 
     35 CA         28.4157  -50.8776  -56.6463 C.3       7 UNK         0.0281 
     36 CB         28.7020  -52.3351  -57.0665 C.3       7 UNK        -0.1963 
     37 N          29.4705  -49.9641  -57.1113 N.am      7 UNK        -0.4444 
     38 C          29.7728  -49.6669  -58.3847 C.2       7 UNK         0.5104 
     39 O          29.2885  -50.2313  -59.3658 O.2       7 UNK        -0.5100 
     40 CA         30.7401  -48.4954  -58.6061 C.3       6 UNK         0.0396 
     41 CB         29.9534  -47.1799  -58.7138 C.3       6 UNK        -0.1801 
     42 N          31.7565  -48.3668  -57.5602 N.am      6 UNK        -0.4747 
     43 C          32.8475  -49.1418  -57.4758 C.2       6 UNK         0.5012 
     44 O          33.0635  -50.1002  -58.2190 O.2       6 UNK        -0.5003 
     45 CA         33.8786  -48.7700  -56.3948 C.3       5 UNK         0.0782 
     46 C46        34.1802  -47.2538  -56.3206 C.3       11 UNK        -0.0868 
     47 S47        35.0207  -46.5429  -57.7756 S.3       11 UNK        -0.2515 
     48 C48        33.8140  -45.2943  -58.3620 C.3       11 UNK         0.0199 
     49 N          33.4285  -49.2461  -55.0893 N.am      5 UNK        -0.4607 
     50 C          33.5984  -50.4823  -54.6097 C.2       4 UNK         0.5031 
     51 O          34.1201  -51.4007  -55.2420 O.2       4 UNK        -0.5119 
     52 CA         33.1451  -50.7245  -53.1600 C.3       4 UNK         0.0263 
     53 CB         34.2229  -50.2431  -52.1748 C.3       4 UNK        -0.1967 
     54 N          31.8738  -50.0759  -52.8324 N.am      4 UNK        -0.4237 
     55 C          30.6792  -50.4820  -53.2839 C.2       3 UNK         0.4908 
     56 O          30.5220  -51.4459  -54.0319 O.2       3 UNK        -0.5102 
     57 CA         29.4514  -49.6821  -52.8228 C.3       3 UNK         0.0241 
     58 CB         29.0311  -50.0908  -51.4014 C.3       3 UNK        -0.1971 
     59 N          29.7056  -48.2442  -52.8692 N.am      3 UNK        -0.4139 
     60 C          29.5484  -47.4798  -53.9582 C.2       2 UNK         0.5016 
     61 O          29.0983  -47.8926  -55.0306 O.2       2 UNK        -0.5319 
     62 CA         29.9501  -45.9982  -53.8311 C.3       2 UNK         0.0286 
     63 CB         28.7164  -45.1441  -53.5268 C.3       2 UNK        -0.1963 
     64 N          30.9551  -45.7211  -52.8047 N.am      2 UNK        -0.4790 
     65 C          32.2128  -46.1780  -52.8211 C.2       1 UNK         0.5024 
     66 O          32.6492  -46.9431  -53.6768 O.2       1 UNK        -0.4888 
     67 H67        31.3836  -46.2841  -48.0252 H         1 UNK         0.0892 
     68 H68        31.8229  -47.9913  -47.9343 H         1 UNK         0.0892 
     69 H69        30.2576  -47.5171  -48.5984 H         1 UNK         0.0892 
     70 H70        32.4276  -45.2430  -49.6986 H         1 UNK         0.3107 
     71 H71        33.9783  -46.4223  -51.6496 H         1 UNK         0.0773 
     72 H72        33.9777  -43.9672  -50.7916 H         1 UNK         0.0680 
     73 H73        32.7376  -43.6343  -51.9642 H         1 UNK         0.0680 
     74 H74        33.7334  -41.9996  -53.3783 H         1 UNK         0.0650 
     75 H75        35.1238  -42.1743  -54.4115 H         1 UNK         0.0650 
     76 H76        35.0285  -44.2362  -56.1087 H         1 UNK         0.1397 
     77 H77        31.2945  -44.2947  -58.2162 H         1 UNK         0.1363 
     78 H78        31.6113  -42.2383  -54.4713 H         1 UNK         0.1355 
     79 H79        29.8070  -42.0154  -57.2970 H         1 UNK         0.0707 
     80 H80        29.5071  -42.2602  -55.5892 H         1 UNK         0.0707 
     81 H81        26.7475  -43.6270  -58.1874 H         1 UNK         0.1034 
     82 H82        27.3961  -42.1678  -57.4991 H         1 UNK         0.1034 
     83 H83        26.4774  -42.7205  -55.2829 H         1 UNK         0.0482 
     84 H84        23.6577  -44.1689  -56.7540 H         1 UNK         0.3460 
     85 H85        22.8547  -42.6606  -57.1252 H         1 UNK         0.3460 
     86 H86        26.2779  -45.3600  -56.2503 H         1 UNK         0.2989 
     87 H87        25.9161  -46.6775  -53.4939 H         1 UNK         0.0559 
     88 H88        23.8217  -48.0568  -53.4431 H         1 UNK         0.0848 
     89 H89        22.9836  -46.8090  -54.3647 H         1 UNK         0.0848 
     90 H90        23.5858  -46.4610  -52.7535 H         1 UNK         0.0848 
     91 H91        26.4389  -47.8999  -55.2501 H         1 UNK         0.3144 
     92 H92        24.9108  -49.1227  -57.9864 H         1 UNK         0.0727 
     93 H93        26.5182  -48.1120  -59.6282 H         1 UNK         0.0790 
     94 H94        26.7495  -46.7298  -58.5579 H         1 UNK         0.0790 
     95 H95        25.1788  -47.0306  -59.2879 H         1 UNK         0.0790 
     96 H96        27.6470  -48.4875  -56.9303 H         1 UNK         0.3215 
     97 H97        28.4406  -50.8461  -55.5590 H         1 UNK         0.0863 
     98 H98        29.7054  -52.6401  -56.7691 H         1 UNK         0.0808 
     99 H99        28.6106  -52.4762  -58.1436 H         1 UNK         0.0808 
    100 H100       28.0019  -53.0220  -56.5898 H         1 UNK         0.0808 
    101 H101       29.8907  -49.3925  -56.3875 H         1 UNK         0.3118 
    102 H102       31.2446  -48.6617  -59.5606 H         1 UNK         0.0546 
    103 H103       29.1622  -47.2559  -59.4610 H         1 UNK         0.0828 
    104 H104       30.5980  -46.3579  -59.0198 H         1 UNK         0.0828 
    105 H105       29.4849  -46.9084  -57.7673 H         1 UNK         0.0828 
    106 H106       31.6442  -47.6096  -56.9018 H         1 UNK         0.3005 
    107 H107       34.8108  -49.2817  -56.6464 H         1 UNK         0.1257 
    108 H108       34.8318  -47.0578  -55.4671 H         1 UNK         0.0775 
    109 H109       33.2660  -46.7021  -56.1094 H         1 UNK         0.0775 
    110 H110       34.2985  -44.6634  -59.1081 H         1 UNK         0.0840 
    111 H111       33.0159  -45.8254  -58.8824 H         1 UNK         0.0840 
    112 H112       33.0179  -48.5380  -54.4839 H         1 UNK         0.2987 
    113 H113       33.0207  -51.8015  -53.0274 H         1 UNK         0.0785 
    114 H114       34.3713  -49.1639  -52.2359 H         1 UNK         0.0798 
    115 H115       35.1827  -50.7191  -52.3799 H         1 UNK         0.0798 
    116 H116       33.9539  -50.4834  -51.1460 H         1 UNK         0.0798 
    117 H117       31.9113  -49.3032  -52.1704 H         1 UNK         0.3079 
    118 H118       28.6193  -49.9163  -53.4881 H         1 UNK         0.0794 
    119 H119       29.8146  -49.8940  -50.6691 H         1 UNK         0.0786 
    120 H120       28.8044  -51.1568  -51.3554 H         1 UNK         0.0786 
    121 H121       28.1356  -49.5558  -51.0848 H         1 UNK         0.0786 
    122 H122       30.1312  -47.8314  -52.0498 H         1 UNK         0.3032 
    123 H123       30.3609  -45.6920  -54.7961 H         1 UNK         0.1094 
    124 H124       27.9526  -45.3272  -54.2753 H         1 UNK         0.0794 
    125 H125       28.2846  -45.3747  -52.5522 H         1 UNK         0.0794 
    126 H126       28.9480  -44.0792  -53.5575 H         1 UNK         0.0794 
    127 H127       30.6724  -45.1237  -52.0414 H         1 UNK         0.3016 
@<TRIPOS>BOND
     1    1    2 1    
     2    1   67 1    
     3    1   68 1    
     4    1   69 1    
     5    2    3 2    
     6    2    4 am   BACKBONE|DICT|INTERRES
     7    4    5 1    
     8    4   70 1    
     9    5    6 1    
    10    5   65 1    
    11    5   71 1    
    12    6    7 1    
    13    6   72 1    
    14    6   73 1    
    15    7    8 1    
    16    8    9 1    
    17    8   74 1    
    18    8   75 1    
    19    9   10 ar   
    20    9   14 ar   
    21   10   11 ar   
    22   10   76 1    
    23   11   12 ar   
    24   11   48 1    
    25   12   13 ar   
    26   12   77 1    
    27   13   14 ar   
    28   13   15 1    
    29   14   78 1    
    30   15   16 1    
    31   15   79 1    
    32   15   80 1    
    33   16   17 1    
    34   17   18 1    
    35   17   81 1    
    36   17   82 1    
    37   18   19 1    
    38   18   22 1    
    39   18   83 1    
    40   19   20 am   BACKBONE|DICT|INTERRES
    41   19   21 2    
    42   20   84 1    
    43   20   85 1    
    44   22   23 am   BACKBONE|DICT|INTERRES
    45   22   86 1    
    46   23   24 2    
    47   23   25 1    
    48   25   26 1    
    49   25   27 1    
    50   25   87 1    
    51   26   88 1    
    52   26   89 1    
    53   26   90 1    
    54   27   28 am   BACKBONE|DICT|INTERRES
    55   27   91 1    
    56   28   29 2    
    57   28   30 1    
    58   30   31 1    
    59   30   32 1    
    60   30   92 1    
    61   31   93 1    
    62   31   94 1    
    63   31   95 1    
    64   32   33 am   BACKBONE|DICT|INTERRES
    65   32   96 1    
    66   33   34 2    
    67   33   35 1    
    68   35   36 1    
    69   35   37 1    
    70   35   97 1    
    71   36   98 1    
    72   36   99 1    
    73   36  100 1    
    74   37   38 am   BACKBONE|DICT|INTERRES
    75   37  101 1    
    76   38   39 2    
    77   38   40 1    
    78   40   41 1    
    79   40   42 1    
    80   40  102 1    
    81   41  103 1    
    82   41  104 1    
    83   41  105 1    
    84   42   43 am   BACKBONE|DICT|INTERRES
    85   42  106 1    
    86   43   44 2    
    87   43   45 1    
    88   45   46 1    
    89   45   49 1    
    90   45  107 1    
    91   46   47 1    
    92   46  108 1    
    93   46  109 1    
    94   47   48 1    
    95   48  110 1    
    96   48  111 1    
    97   49   50 am   BACKBONE|DICT|INTERRES
    98   49  112 1    
    99   50   51 2    
   100   50   52 1    
   101   52   53 1    
   102   52   54 1    
   103   52  113 1    
   104   53  114 1    
   105   53  115 1    
   106   53  116 1    
   107   54   55 am   BACKBONE|DICT|INTERRES
   108   54  117 1    
   109   55   56 2    
   110   55   57 1    
   111   57   58 1    
   112   57   59 1    
   113   57  118 1    
   114   58  119 1    
   115   58  120 1    
   116   58  121 1    
   117   59   60 am   BACKBONE|DICT|INTERRES
   118   59  122 1    
   119   60   61 2    
   120   60   62 1    
   121   62   63 1    
   122   62   64 1    
   123   62  123 1    
   124   63  124 1    
   125   63  125 1    
   126   63  126 1    
   127   64   65 am   BACKBONE|DICT|INTERRES
   128   64  127 1    
   129   65   66 2    
@<TRIPOS>SUBSTRUCTURE
     1 UNK         1 GROUP             0       ****    0 ROOT    
