@<TRIPOS>MOLECULE
3R134
127   129    1
SMALL
USER_CHARGES


@<TRIPOS>ATOM
      1 CA         32.5552  -46.0476  -50.7803 C.3       0 UNK        -0.1968 
      2 C          33.9532  -45.7064  -51.2724 C.2       0 UNK         0.4852 
      3 O          34.5795  -44.7802  -50.7545 O.2       0 UNK        -0.5359 
      4 N          34.4382  -46.4473  -52.2710 N.am      1 UNK        -0.4300 
      5 CA         35.7368  -46.2532  -52.9158 C.3       1 UNK         0.0863 
      6 C6         35.7459  -45.0999  -53.9625 C.3       11 UNK        -0.0953 
      7 S7         34.3051  -45.0958  -55.0952 S.3       11 UNK        -0.2369 
      8 C8         33.5628  -43.4689  -54.7408 C.3       11 UNK         0.0226 
      9 C9         32.0444  -43.5322  -54.6779 C.ar      11 UNK        -0.0699 
     10 C10        31.3877  -43.4407  -53.4472 C.ar      11 UNK        -0.0804 
     11 C11        29.9915  -43.4317  -53.3861 C.ar      11 UNK        -0.0871 
     12 C12        29.2511  -43.5410  -54.5672 C.ar      11 UNK        -0.1008 
     13 C13        29.8947  -43.6329  -55.8078 C.ar      11 UNK        -0.0735 
     14 C14        31.2930  -43.6304  -55.8521 C.ar      11 UNK        -0.0945 
     15 C15        29.1044  -43.7385  -57.1092 C.3       11 UNK         0.0169 
     16 S16        27.7698  -42.5045  -57.2513 S.3       11 UNK        -0.2669 
     17 C17        26.3236  -43.4968  -56.7364 C.3       11 UNK        -0.0850 
     18 CA         25.4291  -44.0339  -57.8930 C.3       10 UNK         0.0855 
     19 C          24.5894  -42.9419  -58.6271 C.2       10 UNK         0.5543 
     20 N          24.1904  -43.1465  -59.8761 N.am      10 UNK        -0.7343 
     21 O          24.2459  -41.9166  -58.0432 O.2       10 UNK        -0.5027 
     22 N          26.0984  -45.0535  -58.7265 N.am      10 UNK        -0.4495 
     23 C          26.9104  -44.8866  -59.7795 C.2       10 UNK         0.4903 
     24 O          27.2314  -43.7947  -60.2489 O.2       10 UNK        -0.4860 
     25 CA         27.4540  -46.1815  -60.4196 C.3       9 UNK         0.0227 
     26 CB         28.1543  -45.9238  -61.7675 C.3       9 UNK        -0.1964 
     27 N          28.3775  -46.9052  -59.5394 N.am      9 UNK        -0.4231 
     28 C          28.0280  -47.6118  -58.4568 C.2       9 UNK         0.5014 
     29 O          26.8657  -47.7000  -58.0507 O.2       9 UNK        -0.5270 
     30 CA         29.1771  -48.3147  -57.7066 C.3       8 UNK         0.0284 
     31 CB         30.0001  -47.3038  -56.8882 C.3       8 UNK        -0.1977 
     32 N          28.6871  -49.3483  -56.7967 N.am      8 UNK        -0.4342 
     33 C          28.0855  -50.4912  -57.1506 C.2       8 UNK         0.5039 
     34 O          27.9947  -50.8923  -58.3122 O.2       8 UNK        -0.5547 
     35 CA         27.4673  -51.3197  -56.0133 C.3       7 UNK         0.0281 
     36 CB         28.5154  -52.2456  -55.3747 C.3       7 UNK        -0.1963 
     37 N          26.8882  -50.4575  -54.9797 N.am      7 UNK        -0.4444 
     38 C          25.6205  -50.0236  -54.9691 C.2       7 UNK         0.5104 
     39 O          24.7773  -50.3555  -55.8032 O.2       7 UNK        -0.5100 
     40 CA         25.2018  -49.0838  -53.8215 C.3       6 UNK         0.0396 
     41 CB         24.4653  -49.8757  -52.7288 C.3       6 UNK        -0.1801 
     42 N          26.3281  -48.3701  -53.2134 N.am      6 UNK        -0.4747 
     43 C          26.8929  -47.2639  -53.7199 C.2       6 UNK         0.5012 
     44 O          26.4865  -46.6879  -54.7281 O.2       6 UNK        -0.5003 
     45 CA         28.1284  -46.7060  -52.9795 C.3       5 UNK         0.0782 
     46 C46        27.6952  -45.5839  -52.0063 C.3       11 UNK        -0.0868 
     47 S47        29.1046  -44.8131  -51.1431 S.3       11 UNK        -0.2515 
     48 C48        29.2911  -43.2462  -52.0472 C.3       11 UNK         0.0199 
     49 N          28.9467  -47.7310  -52.3110 N.am      5 UNK        -0.4607 
     50 C          29.5197  -48.7730  -52.9225 C.2       4 UNK         0.5031 
     51 O          29.2997  -49.0755  -54.0959 O.2       4 UNK        -0.5119 
     52 CA         30.4486  -49.6594  -52.0780 C.3       4 UNK         0.0263 
     53 CB         29.6298  -50.7271  -51.3348 C.3       4 UNK        -0.1967 
     54 N          31.4425  -50.3236  -52.9255 N.am      4 UNK        -0.4237 
     55 C          32.4350  -49.6862  -53.5580 C.2       3 UNK         0.4908 
     56 O          32.7251  -48.4995  -53.3638 O.2       3 UNK        -0.5102 
     57 CA         33.2228  -50.5077  -54.5890 C.3       3 UNK         0.0241 
     58 CB         32.3638  -50.8521  -55.8197 C.3       3 UNK        -0.1971 
     59 N          34.3610  -49.7032  -55.0062 N.am      3 UNK        -0.4139 
     60 C          35.5979  -50.1346  -55.2654 C.2       2 UNK         0.5016 
     61 O          35.9129  -51.3221  -55.3527 O.2       2 UNK        -0.5319 
     62 CA         36.6749  -49.0440  -55.4272 C.3       2 UNK         0.0286 
     63 CB         36.9443  -48.7680  -56.9152 C.3       2 UNK        -0.1963 
     64 N          36.3248  -47.7821  -54.7595 N.am      2 UNK        -0.4790 
     65 C          36.2167  -47.6197  -53.4322 C.2       1 UNK         0.5024 
     66 O          36.4660  -48.5114  -52.6190 O.2       1 UNK        -0.4888 
     67 H67        31.9444  -46.4655  -51.5810 H         1 UNK         0.0892 
     68 H68        32.6057  -46.7715  -49.9678 H         1 UNK         0.0892 
     69 H69        32.0550  -45.1529  -50.4111 H         1 UNK         0.0892 
     70 H70        33.8721  -47.2050  -52.6516 H         1 UNK         0.3107 
     71 H71        36.4591  -45.9871  -52.1406 H         1 UNK         0.0773 
     72 H72        35.7874  -44.1538  -53.4232 H         1 UNK         0.0680 
     73 H73        36.6625  -45.1102  -54.5549 H         1 UNK         0.0680 
     74 H74        33.8694  -42.7656  -55.5163 H         1 UNK         0.0650 
     75 H75        33.9435  -43.0656  -53.8021 H         1 UNK         0.0650 
     76 H76        31.9633  -43.3507  -52.5359 H         1 UNK         0.1397 
     77 H77        28.1720  -43.5304  -54.5195 H         1 UNK         0.1363 
     78 H78        31.8044  -43.6968  -56.8028 H         1 UNK         0.1355 
     79 H79        28.6935  -44.7427  -57.2037 H         1 UNK         0.0707 
     80 H80        29.7665  -43.6041  -57.9658 H         1 UNK         0.0707 
     81 H81        26.6582  -44.3392  -56.1300 H         1 UNK         0.1034 
     82 H82        25.7272  -42.8866  -56.0560 H         1 UNK         0.1034 
     83 H83        24.6531  -44.6133  -57.3914 H         1 UNK         0.0482 
     84 H84        23.6344  -42.4455  -60.3398 H         1 UNK         0.3460 
     85 H85        24.4682  -43.9804  -60.3677 H         1 UNK         0.3460 
     86 H86        25.9753  -46.0128  -58.4128 H         1 UNK         0.2989 
     87 H87        26.5953  -46.8267  -60.6179 H         1 UNK         0.0559 
     88 H88        27.4877  -45.4102  -62.4619 H         1 UNK         0.0848 
     89 H89        28.4560  -46.8566  -62.2443 H         1 UNK         0.0848 
     90 H90        29.0433  -45.3025  -61.6510 H         1 UNK         0.0848 
     91 H91        29.3557  -46.8580  -59.7867 H         1 UNK         0.3144 
     92 H92        29.8281  -48.7932  -58.4410 H         1 UNK         0.0727 
     93 H93        29.3849  -46.7990  -56.1425 H         1 UNK         0.0790 
     94 H94        30.4421  -46.5378  -57.5260 H         1 UNK         0.0790 
     95 H95        30.8198  -47.7901  -56.3590 H         1 UNK         0.0790 
     96 H96        28.7684  -49.1420  -55.8030 H         1 UNK         0.3215 
     97 H97        26.6854  -51.9468  -56.4477 H         1 UNK         0.0863 
     98 H98        28.0586  -52.9112  -54.6422 H         1 UNK         0.0808 
     99 H99        29.2981  -51.6815  -54.8688 H         1 UNK         0.0808 
    100 H100       28.9953  -52.8721  -56.1279 H         1 UNK         0.0808 
    101 H101       27.5352  -50.0701  -54.3037 H         1 UNK         0.3118 
    102 H102       24.5043  -48.3519  -54.2347 H         1 UNK         0.0546 
    103 H103       25.1082  -50.6280  -52.2702 H         1 UNK         0.0828 
    104 H104       23.5994  -50.3959  -53.1409 H         1 UNK         0.0828 
    105 H105       24.0996  -49.2184  -51.9398 H         1 UNK         0.0828 
    106 H106       26.7210  -48.7643  -52.3706 H         1 UNK         0.3005 
    107 H107       28.7649  -46.2592  -53.7463 H         1 UNK         0.1257 
    108 H108       27.0200  -45.9813  -51.2460 H         1 UNK         0.0775 
    109 H109       27.1304  -44.8124  -52.5333 H         1 UNK         0.0775 
    110 H110       28.3170  -42.7732  -52.1811 H         1 UNK         0.0840 
    111 H111       29.8706  -42.5585  -51.4293 H         1 UNK         0.0840 
    112 H112       29.1592  -47.5511  -51.3402 H         1 UNK         0.2987 
    113 H113       30.9713  -49.0347  -51.3504 H         1 UNK         0.0785 
    114 H114       28.9003  -50.2684  -50.6659 H         1 UNK         0.0798 
    115 H115       30.2704  -51.3624  -50.7227 H         1 UNK         0.0798 
    116 H116       29.0807  -51.3700  -52.0244 H         1 UNK         0.0798 
    117 H117       31.2645  -51.2903  -53.1535 H         1 UNK         0.3079 
    118 H118       33.5723  -51.4235  -54.1075 H         1 UNK         0.0794 
    119 H119       31.5494  -51.5259  -55.5568 H         1 UNK         0.0786 
    120 H120       32.9551  -51.3512  -56.5876 H         1 UNK         0.0786 
    121 H121       31.9210  -49.9614  -56.2666 H         1 UNK         0.0786 
    122 H122       34.2159  -48.7079  -54.8937 H         1 UNK         0.3032 
    123 H123       37.5925  -49.4256  -54.9734 H         1 UNK         0.1094 
    124 H124       37.7583  -48.0547  -57.0461 H         1 UNK         0.0794 
    125 H125       37.2311  -49.6830  -57.4357 H         1 UNK         0.0794 
    126 H126       36.0625  -48.3696  -57.4186 H         1 UNK         0.0794 
    127 H127       36.0817  -47.0008  -55.3543 H         1 UNK         0.3016 
@<TRIPOS>BOND
     1    1    2 1    
     2    1   67 1    
     3    1   68 1    
     4    1   69 1    
     5    2    3 2    
     6    2    4 am   BACKBONE|DICT|INTERRES
     7    4    5 1    
     8    4   70 1    
     9    5    6 1    
    10    5   65 1    
    11    5   71 1    
    12    6    7 1    
    13    6   72 1    
    14    6   73 1    
    15    7    8 1    
    16    8    9 1    
    17    8   74 1    
    18    8   75 1    
    19    9   10 ar   
    20    9   14 ar   
    21   10   11 ar   
    22   10   76 1    
    23   11   12 ar   
    24   11   48 1    
    25   12   13 ar   
    26   12   77 1    
    27   13   14 ar   
    28   13   15 1    
    29   14   78 1    
    30   15   16 1    
    31   15   79 1    
    32   15   80 1    
    33   16   17 1    
    34   17   18 1    
    35   17   81 1    
    36   17   82 1    
    37   18   19 1    
    38   18   22 1    
    39   18   83 1    
    40   19   20 am   BACKBONE|DICT|INTERRES
    41   19   21 2    
    42   20   84 1    
    43   20   85 1    
    44   22   23 am   BACKBONE|DICT|INTERRES
    45   22   86 1    
    46   23   24 2    
    47   23   25 1    
    48   25   26 1    
    49   25   27 1    
    50   25   87 1    
    51   26   88 1    
    52   26   89 1    
    53   26   90 1    
    54   27   28 am   BACKBONE|DICT|INTERRES
    55   27   91 1    
    56   28   29 2    
    57   28   30 1    
    58   30   31 1    
    59   30   32 1    
    60   30   92 1    
    61   31   93 1    
    62   31   94 1    
    63   31   95 1    
    64   32   33 am   BACKBONE|DICT|INTERRES
    65   32   96 1    
    66   33   34 2    
    67   33   35 1    
    68   35   36 1    
    69   35   37 1    
    70   35   97 1    
    71   36   98 1    
    72   36   99 1    
    73   36  100 1    
    74   37   38 am   BACKBONE|DICT|INTERRES
    75   37  101 1    
    76   38   39 2    
    77   38   40 1    
    78   40   41 1    
    79   40   42 1    
    80   40  102 1    
    81   41  103 1    
    82   41  104 1    
    83   41  105 1    
    84   42   43 am   BACKBONE|DICT|INTERRES
    85   42  106 1    
    86   43   44 2    
    87   43   45 1    
    88   45   46 1    
    89   45   49 1    
    90   45  107 1    
    91   46   47 1    
    92   46  108 1    
    93   46  109 1    
    94   47   48 1    
    95   48  110 1    
    96   48  111 1    
    97   49   50 am   BACKBONE|DICT|INTERRES
    98   49  112 1    
    99   50   51 2    
   100   50   52 1    
   101   52   53 1    
   102   52   54 1    
   103   52  113 1    
   104   53  114 1    
   105   53  115 1    
   106   53  116 1    
   107   54   55 am   BACKBONE|DICT|INTERRES
   108   54  117 1    
   109   55   56 2    
   110   55   57 1    
   111   57   58 1    
   112   57   59 1    
   113   57  118 1    
   114   58  119 1    
   115   58  120 1    
   116   58  121 1    
   117   59   60 am   BACKBONE|DICT|INTERRES
   118   59  122 1    
   119   60   61 2    
   120   60   62 1    
   121   62   63 1    
   122   62   64 1    
   123   62  123 1    
   124   63  124 1    
   125   63  125 1    
   126   63  126 1    
   127   64   65 am   BACKBONE|DICT|INTERRES
   128   64  127 1    
   129   65   66 2    
@<TRIPOS>SUBSTRUCTURE
     1 UNK         1 GROUP             0       ****    0 ROOT    
