@<TRIPOS>MOLECULE
3R134
127   129    1
SMALL
USER_CHARGES


@<TRIPOS>ATOM
      1 CA         33.1877  -41.6059  -53.2799 C.3       0 UNK        -0.1968 
      2 C          34.3148  -42.5404  -53.6879 C.2       0 UNK         0.4852 
      3 O          35.4388  -42.3868  -53.2080 O.2       0 UNK        -0.5359 
      4 N          34.0246  -43.5054  -54.5733 N.am      1 UNK        -0.4300 
      5 CA         34.9944  -44.4893  -55.0745 C.3       1 UNK         0.0863 
      6 C6         34.5970  -45.0270  -56.4794 C.3       11 UNK        -0.0953 
      7 S7         33.5255  -46.5038  -56.5277 S.3       11 UNK        -0.2369 
      8 C8         31.8645  -45.8179  -56.8286 C.3       11 UNK         0.0226 
      9 C9         31.3084  -45.0541  -55.6348 C.ar      11 UNK        -0.0699 
     10 C10        31.2512  -45.6548  -54.3738 C.ar      11 UNK        -0.0804 
     11 C11        30.7346  -44.9633  -53.2710 C.ar      11 UNK        -0.0871 
     12 C12        30.2522  -43.6624  -53.4531 C.ar      11 UNK        -0.1008 
     13 C13        30.2786  -43.0591  -54.7152 C.ar      11 UNK        -0.0735 
     14 C14        30.8200  -43.7561  -55.7987 C.ar      11 UNK        -0.0945 
     15 C15        29.7194  -41.6563  -54.9158 C.3       11 UNK         0.0169 
     16 S16        28.2203  -41.6584  -55.9525 S.3       11 UNK        -0.2669 
     17 C17        26.9994  -42.4636  -54.8580 C.3       11 UNK        -0.0850 
     18 CA         26.9565  -44.0066  -55.0172 C.3       10 UNK         0.0855 
     19 C          25.9346  -44.6437  -54.0373 C.2       10 UNK         0.5543 
     20 N          26.2807  -44.7295  -52.7603 N.am      10 UNK        -0.7343 
     21 O          24.8244  -45.0187  -54.4105 O.2       10 UNK        -0.5027 
     22 N          26.7370  -44.4163  -56.4116 N.am      10 UNK        -0.4495 
     23 C          27.0588  -45.6229  -56.8886 C.2       10 UNK         0.4903 
     24 O          27.6195  -46.4886  -56.2152 O.2       10 UNK        -0.4860 
     25 CA         26.6542  -45.9248  -58.3450 C.3       9 UNK         0.0227 
     26 CB         26.8824  -44.7356  -59.3061 C.3       9 UNK        -0.1964 
     27 N          27.2923  -47.1545  -58.8301 N.am      9 UNK        -0.4231 
     28 C          28.5936  -47.3593  -59.0931 C.2       9 UNK         0.5014 
     29 O          29.4316  -46.4588  -59.1604 O.2       9 UNK        -0.5270 
     30 CA         29.0398  -48.8204  -59.3079 C.3       8 UNK         0.0284 
     31 CB         30.4765  -49.0658  -58.8084 C.3       8 UNK        -0.1977 
     32 N          28.1413  -49.7646  -58.6366 N.am      8 UNK        -0.4342 
     33 C          27.1269  -50.4124  -59.2244 C.2       8 UNK         0.5039 
     34 O          26.8657  -50.3288  -60.4246 O.2       8 UNK        -0.5547 
     35 CA         26.2223  -51.2656  -58.3195 C.3       7 UNK         0.0281 
     36 CB         26.7903  -52.6852  -58.1647 C.3       7 UNK        -0.1963 
     37 N          26.0043  -50.6769  -56.9951 N.am      7 UNK        -0.4444 
     38 C          25.2883  -49.5676  -56.7562 C.2       7 UNK         0.5104 
     39 O          24.7532  -48.8915  -57.6345 O.2       7 UNK        -0.5100 
     40 CA         25.1944  -49.1266  -55.2915 C.3       6 UNK         0.0396 
     41 CB         24.3424  -50.1092  -54.4635 C.3       6 UNK        -0.1801 
     42 N          26.5505  -49.0051  -54.7711 N.am      6 UNK        -0.4747 
     43 C          26.9513  -48.4791  -53.6131 C.2       6 UNK         0.5012 
     44 O          26.1759  -48.1372  -52.7183 O.2       6 UNK        -0.5003 
     45 CA         28.4829  -48.3157  -53.4316 C.3       5 UNK         0.0782 
     46 C46        28.8305  -47.6682  -52.0638 C.3       11 UNK        -0.0868 
     47 S47        30.6175  -47.3909  -51.8083 S.3       11 UNK        -0.2515 
     48 C48        30.7322  -45.5677  -51.8666 C.3       11 UNK         0.0199 
     49 N          29.2356  -49.5625  -53.6451 N.am      5 UNK        -0.4607 
     50 C          29.4296  -50.2157  -54.8006 C.2       4 UNK         0.5031 
     51 O          28.8752  -49.9232  -55.8638 O.2       4 UNK        -0.5119 
     52 CA         30.4324  -51.3884  -54.7535 C.3       4 UNK         0.0263 
     53 CB         30.7567  -51.9487  -56.1547 C.3       4 UNK        -0.1967 
     54 N          31.6797  -51.0617  -54.0438 N.am      4 UNK        -0.4237 
     55 C          32.4910  -50.0219  -54.2930 C.2       3 UNK         0.4908 
     56 O          32.2767  -49.1634  -55.1478 O.2       3 UNK        -0.5102 
     57 CA         33.7720  -49.9311  -53.4615 C.3       3 UNK         0.0241 
     58 CB         34.9700  -50.5213  -54.2264 C.3       3 UNK        -0.1971 
     59 N          34.0192  -48.5260  -53.1511 N.am      3 UNK        -0.4139 
     60 C          34.6423  -48.0844  -52.0535 C.2       2 UNK         0.5016 
     61 O          35.1636  -48.8349  -51.2258 O.2       2 UNK        -0.5319 
     62 CA         34.6527  -46.5631  -51.8026 C.3       2 UNK         0.0286 
     63 CB         35.8787  -46.1031  -50.9838 C.3       2 UNK        -0.1963 
     64 N          34.4860  -45.7292  -53.0013 N.am      2 UNK        -0.4790 
     65 C          35.3372  -45.5841  -54.0312 C.2       1 UNK         0.5024 
     66 O          36.3693  -46.2422  -54.1670 O.2       1 UNK        -0.4888 
     67 H67        32.5669  -42.0703  -52.5146 H         1 UNK         0.0892 
     68 H68        33.5877  -40.6763  -52.8756 H         1 UNK         0.0892 
     69 H69        32.5632  -41.3535  -54.1350 H         1 UNK         0.0892 
     70 H70        33.0795  -43.6022  -54.9223 H         1 UNK         0.3107 
     71 H71        35.9282  -43.9421  -55.2243 H         1 UNK         0.0773 
     72 H72        35.5088  -45.3051  -57.0103 H         1 UNK         0.0680 
     73 H73        34.1512  -44.2350  -57.0834 H         1 UNK         0.0680 
     74 H74        31.1869  -46.6442  -57.0439 H         1 UNK         0.0650 
     75 H75        31.8874  -45.1963  -57.7248 H         1 UNK         0.0650 
     76 H76        31.6238  -46.6632  -54.2620 H         1 UNK         0.1397 
     77 H77        29.8517  -43.1164  -52.6097 H         1 UNK         0.1363 
     78 H78        30.8362  -43.2920  -56.7757 H         1 UNK         0.1355 
     79 H79        29.5023  -41.1773  -53.9598 H         1 UNK         0.0707 
     80 H80        30.4747  -41.0382  -55.4027 H         1 UNK         0.0707 
     81 H81        27.2197  -42.1885  -53.8250 H         1 UNK         0.1034 
     82 H82        26.0193  -42.0359  -55.0769 H         1 UNK         0.1034 
     83 H83        27.9313  -44.3981  -54.7280 H         1 UNK         0.0482 
     84 H84        27.1774  -44.4061  -52.4371 H         1 UNK         0.3460 
     85 H85        25.6316  -45.1437  -52.1098 H         1 UNK         0.3460 
     86 H86        26.2616  -43.7540  -57.0047 H         1 UNK         0.2989 
     87 H87        25.5845  -46.1381  -58.3279 H         1 UNK         0.0559 
     88 H88        27.8956  -44.3391  -59.2298 H         1 UNK         0.0848 
     89 H89        26.1971  -43.9152  -59.0922 H         1 UNK         0.0848 
     90 H90        26.7150  -45.0261  -60.3432 H         1 UNK         0.0848 
     91 H91        26.7036  -47.9753  -58.7846 H         1 UNK         0.3144 
     92 H92        29.0298  -48.9973  -60.3852 H         1 UNK         0.0727 
     93 H93        30.5685  -48.8779  -57.7378 H         1 UNK         0.0790 
     94 H94        31.1903  -48.4159  -59.3159 H         1 UNK         0.0790 
     95 H95        30.7888  -50.0930  -58.9955 H         1 UNK         0.0790 
     96 H96        28.2919  -49.8763  -57.6348 H         1 UNK         0.3215 
     97 H97        25.2503  -51.3436  -58.8122 H         1 UNK         0.0863 
     98 H98        26.1073  -53.3276  -57.6086 H         1 UNK         0.0808 
     99 H99        27.7484  -52.6839  -57.6457 H         1 UNK         0.0808 
    100 H100       26.9482  -53.1501  -59.1390 H         1 UNK         0.0808 
    101 H101       26.4214  -51.1572  -56.2108 H         1 UNK         0.3118 
    102 H102       24.7294  -48.1389  -55.2629 H         1 UNK         0.0546 
    103 H103       24.8181  -51.0860  -54.3727 H         1 UNK         0.0828 
    104 H104       23.3660  -50.2617  -54.9251 H         1 UNK         0.0828 
    105 H105       24.1622  -49.7327  -53.4570 H         1 UNK         0.0828 
    106 H106       27.2964  -49.2439  -55.4239 H         1 UNK         0.3005 
    107 H107       28.8060  -47.6164  -54.2061 H         1 UNK         0.1257 
    108 H108       28.4770  -48.3000  -51.2467 H         1 UNK         0.0775 
    109 H109       28.3063  -46.7176  -51.9540 H         1 UNK         0.0775 
    110 H110       29.9231  -45.1436  -51.2701 H         1 UNK         0.0840 
    111 H111       31.6543  -45.2664  -51.3701 H         1 UNK         0.0840 
    112 H112       29.7423  -49.8900  -52.8362 H         1 UNK         0.2987 
    113 H113       29.9448  -52.1818  -54.1851 H         1 UNK         0.0785 
    114 H114       29.8532  -52.2718  -56.6706 H         1 UNK         0.0798 
    115 H115       31.4184  -52.8124  -56.0927 H         1 UNK         0.0798 
    116 H116       31.2418  -51.2016  -56.7832 H         1 UNK         0.0798 
    117 H117       31.9439  -51.7068  -53.3115 H         1 UNK         0.3079 
    118 H118       33.6247  -50.4875  -52.5331 H         1 UNK         0.0794 
    119 H119       34.7946  -51.5665  -54.4838 H         1 UNK         0.0786 
    120 H120       35.8809  -50.4818  -53.6287 H         1 UNK         0.0786 
    121 H121       35.1561  -49.9807  -55.1556 H         1 UNK         0.0786 
    122 H122       33.6032  -47.8672  -53.7974 H         1 UNK         0.3032 
    123 H123       33.7733  -46.3769  -51.1853 H         1 UNK         0.1094 
    124 H124       35.8524  -45.0291  -50.7989 H         1 UNK         0.0794 
    125 H125       35.9096  -46.5957  -50.0111 H         1 UNK         0.0794 
    126 H126       36.8151  -46.3335  -51.4927 H         1 UNK         0.0794 
    127 H127       33.6622  -45.1449  -53.0130 H         1 UNK         0.3016 
@<TRIPOS>BOND
     1    1    2 1    
     2    1   67 1    
     3    1   68 1    
     4    1   69 1    
     5    2    3 2    
     6    2    4 am   BACKBONE|DICT|INTERRES
     7    4    5 1    
     8    4   70 1    
     9    5    6 1    
    10    5   65 1    
    11    5   71 1    
    12    6    7 1    
    13    6   72 1    
    14    6   73 1    
    15    7    8 1    
    16    8    9 1    
    17    8   74 1    
    18    8   75 1    
    19    9   10 ar   
    20    9   14 ar   
    21   10   11 ar   
    22   10   76 1    
    23   11   12 ar   
    24   11   48 1    
    25   12   13 ar   
    26   12   77 1    
    27   13   14 ar   
    28   13   15 1    
    29   14   78 1    
    30   15   16 1    
    31   15   79 1    
    32   15   80 1    
    33   16   17 1    
    34   17   18 1    
    35   17   81 1    
    36   17   82 1    
    37   18   19 1    
    38   18   22 1    
    39   18   83 1    
    40   19   20 am   BACKBONE|DICT|INTERRES
    41   19   21 2    
    42   20   84 1    
    43   20   85 1    
    44   22   23 am   BACKBONE|DICT|INTERRES
    45   22   86 1    
    46   23   24 2    
    47   23   25 1    
    48   25   26 1    
    49   25   27 1    
    50   25   87 1    
    51   26   88 1    
    52   26   89 1    
    53   26   90 1    
    54   27   28 am   BACKBONE|DICT|INTERRES
    55   27   91 1    
    56   28   29 2    
    57   28   30 1    
    58   30   31 1    
    59   30   32 1    
    60   30   92 1    
    61   31   93 1    
    62   31   94 1    
    63   31   95 1    
    64   32   33 am   BACKBONE|DICT|INTERRES
    65   32   96 1    
    66   33   34 2    
    67   33   35 1    
    68   35   36 1    
    69   35   37 1    
    70   35   97 1    
    71   36   98 1    
    72   36   99 1    
    73   36  100 1    
    74   37   38 am   BACKBONE|DICT|INTERRES
    75   37  101 1    
    76   38   39 2    
    77   38   40 1    
    78   40   41 1    
    79   40   42 1    
    80   40  102 1    
    81   41  103 1    
    82   41  104 1    
    83   41  105 1    
    84   42   43 am   BACKBONE|DICT|INTERRES
    85   42  106 1    
    86   43   44 2    
    87   43   45 1    
    88   45   46 1    
    89   45   49 1    
    90   45  107 1    
    91   46   47 1    
    92   46  108 1    
    93   46  109 1    
    94   47   48 1    
    95   48  110 1    
    96   48  111 1    
    97   49   50 am   BACKBONE|DICT|INTERRES
    98   49  112 1    
    99   50   51 2    
   100   50   52 1    
   101   52   53 1    
   102   52   54 1    
   103   52  113 1    
   104   53  114 1    
   105   53  115 1    
   106   53  116 1    
   107   54   55 am   BACKBONE|DICT|INTERRES
   108   54  117 1    
   109   55   56 2    
   110   55   57 1    
   111   57   58 1    
   112   57   59 1    
   113   57  118 1    
   114   58  119 1    
   115   58  120 1    
   116   58  121 1    
   117   59   60 am   BACKBONE|DICT|INTERRES
   118   59  122 1    
   119   60   61 2    
   120   60   62 1    
   121   62   63 1    
   122   62   64 1    
   123   62  123 1    
   124   63  124 1    
   125   63  125 1    
   126   63  126 1    
   127   64   65 am   BACKBONE|DICT|INTERRES
   128   64  127 1    
   129   65   66 2    
@<TRIPOS>SUBSTRUCTURE
     1 UNK         1 GROUP             0       ****    0 ROOT    
