@<TRIPOS>MOLECULE
3R134
127   129    1
SMALL
USER_CHARGES


@<TRIPOS>ATOM
      1 CA         34.9919  -46.1546  -52.0148 C.3       0 UNK        -0.1968 
      2 C          35.4628  -46.8528  -53.2816 C.2       0 UNK         0.4852 
      3 O          36.6149  -47.2836  -53.3488 O.2       0 UNK        -0.5359 
      4 N          34.5833  -46.9588  -54.2850 N.am      1 UNK        -0.4300 
      5 CA         34.8327  -47.6499  -55.5542 C.3       1 UNK         0.0863 
      6 C6         34.0698  -47.0211  -56.7559 C.3       11 UNK        -0.0953 
      7 S7         32.4142  -46.3245  -56.3902 S.3       11 UNK        -0.2369 
      8 C8         32.7611  -44.5559  -56.6630 C.3       11 UNK         0.0226 
      9 C9         31.5468  -43.6782  -56.4008 C.ar      11 UNK        -0.0699 
     10 C10        31.2440  -43.2779  -55.0967 C.ar      11 UNK        -0.0804 
     11 C11        30.1293  -42.4727  -54.8411 C.ar      11 UNK        -0.0871 
     12 C12        29.3534  -42.0173  -55.9104 C.ar      11 UNK        -0.1008 
     13 C13        29.6444  -42.4069  -57.2198 C.ar      11 UNK        -0.0735 
     14 C14        30.7411  -43.2427  -57.4588 C.ar      11 UNK        -0.0945 
     15 C15        28.7851  -41.9069  -58.3740 C.3       11 UNK         0.0169 
     16 S16        27.4086  -43.0385  -58.7572 S.3       11 UNK        -0.2669 
     17 C17        26.1834  -42.6706  -57.4511 C.3       11 UNK        -0.0850 
     18 CA         26.2386  -43.6613  -56.2483 C.3       10 UNK         0.0855 
     19 C          25.2819  -43.3038  -55.0694 C.2       10 UNK         0.5543 
     20 N          24.9753  -42.0316  -54.8495 N.am      10 UNK        -0.7343 
     21 O          24.8541  -44.1676  -54.3056 O.2       10 UNK        -0.5027 
     22 N          26.1632  -45.0745  -56.6459 N.am      10 UNK        -0.4495 
     23 C          25.1141  -45.6921  -57.2032 C.2       10 UNK         0.4903 
     24 O          24.0462  -45.1397  -57.4755 O.2       10 UNK        -0.4860 
     25 CA         25.3190  -47.1872  -57.5162 C.3       9 UNK         0.0227 
     26 CB         24.1566  -47.8147  -58.3148 C.3       9 UNK        -0.1964 
     27 N          26.6111  -47.4309  -58.1682 N.am      9 UNK        -0.4231 
     28 C          27.0367  -46.9590  -59.3520 C.2       9 UNK         0.5014 
     29 O          26.3246  -46.3443  -60.1469 O.2       9 UNK        -0.5270 
     30 CA         28.5137  -47.2022  -59.7152 C.3       8 UNK         0.0284 
     31 CB         29.2794  -45.8745  -59.8295 C.3       8 UNK        -0.1977 
     32 N          29.1985  -48.0336  -58.7258 N.am      8 UNK        -0.4342 
     33 C          29.4121  -49.3483  -58.8456 C.2       8 UNK         0.5039 
     34 O          29.0784  -50.0241  -59.8196 O.2       8 UNK        -0.5547 
     35 CA         30.1194  -50.0147  -57.6561 C.3       7 UNK         0.0281 
     36 CB         31.6255  -49.7183  -57.7323 C.3       7 UNK        -0.1963 
     37 N          29.5783  -49.5892  -56.3553 N.am      7 UNK        -0.4444 
     38 C          28.3172  -49.8197  -55.9552 C.2       7 UNK         0.5104 
     39 O          27.4721  -50.3732  -56.6580 O.2       7 UNK        -0.5100 
     40 CA         27.9033  -49.3719  -54.5420 C.3       6 UNK         0.0396 
     41 CB         27.8899  -50.5820  -53.5952 C.3       6 UNK        -0.1801 
     42 N          28.7134  -48.3074  -53.9437 N.am      6 UNK        -0.4747 
     43 C          28.8270  -47.0518  -54.4034 C.2       6 UNK         0.5012 
     44 O          28.3402  -46.6814  -55.4751 O.2       6 UNK        -0.5003 
     45 CA         29.5891  -46.0364  -53.5191 C.3       5 UNK         0.0782 
     46 C46        28.7248  -44.7865  -53.2106 C.3       11 UNK        -0.0868 
     47 S47        29.6654  -43.5240  -52.2743 S.3       11 UNK        -0.2515 
     48 C48        29.7383  -42.0991  -53.4157 C.3       11 UNK         0.0199 
     49 N          30.0888  -46.6182  -52.2691 N.am      5 UNK        -0.4607 
     50 C          31.2321  -47.2884  -52.1141 C.2       4 UNK         0.5031 
     51 O          31.9746  -47.6034  -53.0464 O.2       4 UNK        -0.5119 
     52 CA         31.6240  -47.6720  -50.6735 C.3       4 UNK         0.0263 
     53 CB         30.6548  -47.1714  -49.5763 C.3       4 UNK        -0.1967 
     54 N          31.8424  -49.1141  -50.5750 N.am      4 UNK        -0.4237 
     55 C          30.9446  -50.0831  -50.7972 C.2       3 UNK         0.4908 
     56 O          29.7419  -49.8860  -50.9780 O.2       3 UNK        -0.5102 
     57 CA         31.5266  -51.5019  -50.9357 C.3       3 UNK         0.0241 
     58 CB         30.4514  -52.5972  -50.8093 C.3       3 UNK        -0.1971 
     59 N          32.1935  -51.6301  -52.2334 N.am      3 UNK        -0.4139 
     60 C          33.3548  -51.0481  -52.5641 C.2       2 UNK         0.5016 
     61 O          34.0833  -50.4735  -51.7512 O.2       2 UNK        -0.5319 
     62 CA         33.7462  -51.0395  -54.0454 C.3       2 UNK         0.0286 
     63 CB         32.7902  -51.8302  -54.9672 C.3       2 UNK        -0.1963 
     64 N          33.8489  -49.6373  -54.4556 N.am      2 UNK        -0.4790 
     65 C          34.6371  -49.1782  -55.4365 C.2       1 UNK         0.5024 
     66 O          35.2420  -49.9166  -56.2153 O.2       1 UNK        -0.4888 
     67 H67        35.6812  -45.3535  -51.7492 H         1 UNK         0.0892 
     68 H68        34.0004  -45.7187  -52.1351 H         1 UNK         0.0892 
     69 H69        34.9592  -46.8644  -51.1889 H         1 UNK         0.0892 
     70 H70        33.6262  -46.6557  -54.1466 H         1 UNK         0.3107 
     71 H71        35.8941  -47.5302  -55.7838 H         1 UNK         0.0773 
     72 H72        34.6887  -46.2222  -57.1664 H         1 UNK         0.0680 
     73 H73        33.9734  -47.7324  -57.5779 H         1 UNK         0.0680 
     74 H74        33.5819  -44.2475  -56.0131 H         1 UNK         0.0650 
     75 H75        33.1095  -44.4138  -57.6873 H         1 UNK         0.0650 
     76 H76        31.8616  -43.6159  -54.2757 H         1 UNK         0.1397 
     77 H77        28.5038  -41.3752  -55.7233 H         1 UNK         0.1363 
     78 H78        30.9735  -43.5452  -58.4706 H         1 UNK         0.1355 
     79 H79        28.3986  -40.9090  -58.1617 H         1 UNK         0.0707 
     80 H80        29.4034  -41.8036  -59.2669 H         1 UNK         0.0707 
     81 H81        25.1910  -42.6892  -57.9044 H         1 UNK         0.1034 
     82 H82        26.3402  -41.6435  -57.1215 H         1 UNK         0.1034 
     83 H83        27.2301  -43.5701  -55.8195 H         1 UNK         0.0482 
     84 H84        25.3199  -41.2923  -55.4397 H         1 UNK         0.3460 
     85 H85        24.3733  -41.8070  -54.0726 H         1 UNK         0.3460 
     86 H86        26.9789  -45.6315  -56.4099 H         1 UNK         0.2989 
     87 H87        25.3663  -47.6967  -56.5526 H         1 UNK         0.0559 
     88 H88        24.0069  -47.3195  -59.2745 H         1 UNK         0.0848 
     89 H89        23.2196  -47.7372  -57.7622 H         1 UNK         0.0848 
     90 H90        24.3334  -48.8730  -58.5063 H         1 UNK         0.0848 
     91 H91        27.2836  -47.9401  -57.6126 H         1 UNK         0.3144 
     92 H92        28.5306  -47.6886  -60.6928 H         1 UNK         0.0727 
     93 H93        30.3099  -46.0351  -60.1465 H         1 UNK         0.0790 
     94 H94        29.3006  -45.3468  -58.8758 H         1 UNK         0.0790 
     95 H95        28.8143  -45.2125  -60.5612 H         1 UNK         0.0790 
     96 H96        29.5163  -47.5695  -57.8851 H         1 UNK         0.3215 
     97 H97        29.9754  -51.0949  -57.7303 H         1 UNK         0.0863 
     98 H98        31.8220  -48.6737  -57.9697 H         1 UNK         0.0808 
     99 H99        32.0966  -50.3149  -58.5144 H         1 UNK         0.0808 
    100 H100       32.1355  -49.9390  -56.8002 H         1 UNK         0.0808 
    101 H101       30.2040  -49.1159  -55.7193 H         1 UNK         0.3118 
    102 H102       26.8821  -48.9925  -54.6168 H         1 UNK         0.0546 
    103 H103       27.4960  -50.3161  -52.6140 H         1 UNK         0.0828 
    104 H104       28.8904  -50.9922  -53.4548 H         1 UNK         0.0828 
    105 H105       27.2609  -51.3826  -53.9873 H         1 UNK         0.0828 
    106 H106       29.1495  -48.5227  -53.0561 H         1 UNK         0.3005 
    107 H107       30.4467  -45.7212  -54.1150 H         1 UNK         0.1257 
    108 H108       27.8435  -45.0611  -52.6279 H         1 UNK         0.0775 
    109 H109       28.3470  -44.3458  -54.1291 H         1 UNK         0.0775 
    110 H110       28.7650  -41.6058  -53.4014 H         1 UNK         0.0840 
    111 H111       30.4554  -41.3735  -53.0299 H         1 UNK         0.0840 
    112 H112       29.5422  -46.4158  -51.4449 H         1 UNK         0.2987 
    113 H113       32.5910  -47.2036  -50.4897 H         1 UNK         0.0785 
    114 H114       31.0120  -47.4541  -48.5859 H         1 UNK         0.0798 
    115 H115       30.5775  -46.0832  -49.5846 H         1 UNK         0.0798 
    116 H116       29.6490  -47.5781  -49.6872 H         1 UNK         0.0798 
    117 H117       32.8158  -49.4044  -50.5756 H         1 UNK         0.3079 
    118 H118       32.2584  -51.6512  -50.1386 H         1 UNK         0.0794 
    119 H119       29.9301  -52.5208  -49.8542 H         1 UNK         0.0786 
    120 H120       30.8930  -53.5928  -50.8578 H         1 UNK         0.0786 
    121 H121       29.6997  -52.5258  -51.5963 H         1 UNK         0.0786 
    122 H122       31.6563  -52.0637  -52.9698 H         1 UNK         0.3032 
    123 H123       34.7361  -51.4984  -54.1013 H         1 UNK         0.1094 
    124 H124       31.7883  -51.3999  -54.9894 H         1 UNK         0.0794 
    125 H125       33.1671  -51.8569  -55.9895 H         1 UNK         0.0794 
    126 H126       32.7027  -52.8697  -54.6478 H         1 UNK         0.0794 
    127 H127       33.3908  -48.9651  -53.8468 H         1 UNK         0.3016 
@<TRIPOS>BOND
     1    1    2 1    
     2    1   67 1    
     3    1   68 1    
     4    1   69 1    
     5    2    3 2    
     6    2    4 am   BACKBONE|DICT|INTERRES
     7    4    5 1    
     8    4   70 1    
     9    5    6 1    
    10    5   65 1    
    11    5   71 1    
    12    6    7 1    
    13    6   72 1    
    14    6   73 1    
    15    7    8 1    
    16    8    9 1    
    17    8   74 1    
    18    8   75 1    
    19    9   10 ar   
    20    9   14 ar   
    21   10   11 ar   
    22   10   76 1    
    23   11   12 ar   
    24   11   48 1    
    25   12   13 ar   
    26   12   77 1    
    27   13   14 ar   
    28   13   15 1    
    29   14   78 1    
    30   15   16 1    
    31   15   79 1    
    32   15   80 1    
    33   16   17 1    
    34   17   18 1    
    35   17   81 1    
    36   17   82 1    
    37   18   19 1    
    38   18   22 1    
    39   18   83 1    
    40   19   20 am   BACKBONE|DICT|INTERRES
    41   19   21 2    
    42   20   84 1    
    43   20   85 1    
    44   22   23 am   BACKBONE|DICT|INTERRES
    45   22   86 1    
    46   23   24 2    
    47   23   25 1    
    48   25   26 1    
    49   25   27 1    
    50   25   87 1    
    51   26   88 1    
    52   26   89 1    
    53   26   90 1    
    54   27   28 am   BACKBONE|DICT|INTERRES
    55   27   91 1    
    56   28   29 2    
    57   28   30 1    
    58   30   31 1    
    59   30   32 1    
    60   30   92 1    
    61   31   93 1    
    62   31   94 1    
    63   31   95 1    
    64   32   33 am   BACKBONE|DICT|INTERRES
    65   32   96 1    
    66   33   34 2    
    67   33   35 1    
    68   35   36 1    
    69   35   37 1    
    70   35   97 1    
    71   36   98 1    
    72   36   99 1    
    73   36  100 1    
    74   37   38 am   BACKBONE|DICT|INTERRES
    75   37  101 1    
    76   38   39 2    
    77   38   40 1    
    78   40   41 1    
    79   40   42 1    
    80   40  102 1    
    81   41  103 1    
    82   41  104 1    
    83   41  105 1    
    84   42   43 am   BACKBONE|DICT|INTERRES
    85   42  106 1    
    86   43   44 2    
    87   43   45 1    
    88   45   46 1    
    89   45   49 1    
    90   45  107 1    
    91   46   47 1    
    92   46  108 1    
    93   46  109 1    
    94   47   48 1    
    95   48  110 1    
    96   48  111 1    
    97   49   50 am   BACKBONE|DICT|INTERRES
    98   49  112 1    
    99   50   51 2    
   100   50   52 1    
   101   52   53 1    
   102   52   54 1    
   103   52  113 1    
   104   53  114 1    
   105   53  115 1    
   106   53  116 1    
   107   54   55 am   BACKBONE|DICT|INTERRES
   108   54  117 1    
   109   55   56 2    
   110   55   57 1    
   111   57   58 1    
   112   57   59 1    
   113   57  118 1    
   114   58  119 1    
   115   58  120 1    
   116   58  121 1    
   117   59   60 am   BACKBONE|DICT|INTERRES
   118   59  122 1    
   119   60   61 2    
   120   60   62 1    
   121   62   63 1    
   122   62   64 1    
   123   62  123 1    
   124   63  124 1    
   125   63  125 1    
   126   63  126 1    
   127   64   65 am   BACKBONE|DICT|INTERRES
   128   64  127 1    
   129   65   66 2    
@<TRIPOS>SUBSTRUCTURE
     1 UNK         1 GROUP             0       ****    0 ROOT    
