@<TRIPOS>MOLECULE
3R134
127   129    1
SMALL
USER_CHARGES


@<TRIPOS>ATOM
      1 CA         32.5814  -46.6809  -51.4646 C.3       0 UNK        -0.1968 
      2 C          33.4754  -46.8479  -52.6829 C.2       0 UNK         0.4852 
      3 O          33.2272  -47.7237  -53.5127 O.2       0 UNK        -0.5359 
      4 N          34.5155  -46.0120  -52.7961 N.am      1 UNK        -0.4300 
      5 CA         35.5257  -46.0245  -53.8609 C.3       1 UNK         0.0863 
      6 C6         34.9664  -45.6851  -55.2761 C.3       11 UNK        -0.0953 
      7 S7         34.0162  -44.1265  -55.3020 S.3       11 UNK        -0.2369 
      8 C8         32.3485  -44.7651  -55.6515 C.3       11 UNK         0.0226 
      9 C9         31.2686  -43.8126  -55.1694 C.ar      11 UNK        -0.0699 
     10 C10        30.8593  -43.8487  -53.8347 C.ar      11 UNK        -0.0804 
     11 C11        29.8319  -43.0164  -53.3819 C.ar      11 UNK        -0.0871 
     12 C12        29.2296  -42.1290  -54.2780 C.ar      11 UNK        -0.1008 
     13 C13        29.6400  -42.0642  -55.6135 C.ar      11 UNK        -0.0735 
     14 C14        30.6655  -42.9128  -56.0522 C.ar      11 UNK        -0.0945 
     15 C15        28.9709  -41.0376  -56.5282 C.3       11 UNK         0.0169 
     16 S16        29.0401  -41.4016  -58.3187 S.3       11 UNK        -0.2669 
     17 C17        28.0270  -42.9060  -58.5913 C.3       11 UNK        -0.0850 
     18 CA         26.9440  -43.3007  -57.5364 C.3       10 UNK         0.0855 
     19 C          25.6744  -42.3924  -57.5133 C.2       10 UNK         0.5543 
     20 N          25.7469  -41.1655  -58.0112 N.am      10 UNK        -0.7343 
     21 O          24.6276  -42.7777  -56.9955 O.2       10 UNK        -0.5027 
     22 N          26.6119  -44.7298  -57.6398 N.am      10 UNK        -0.4495 
     23 C          26.0116  -45.3189  -58.6844 C.2       10 UNK         0.4903 
     24 O          25.6401  -44.7224  -59.6971 O.2       10 UNK        -0.4860 
     25 CA         25.8310  -46.8435  -58.5795 C.3       9 UNK         0.0227 
     26 CB         25.2933  -47.4889  -59.8740 C.3       9 UNK        -0.1964 
     27 N          27.0591  -47.5080  -58.1340 N.am      9 UNK        -0.4231 
     28 C          28.2627  -47.5208  -58.7289 C.2       9 UNK         0.5014 
     29 O          28.5103  -46.9856  -59.8100 O.2       9 UNK        -0.5270 
     30 CA         29.3950  -48.2509  -57.9802 C.3       8 UNK         0.0284 
     31 CB         30.2841  -47.2357  -57.2425 C.3       8 UNK        -0.1977 
     32 N          28.9023  -49.2375  -57.0161 N.am      8 UNK        -0.4342 
     33 C          28.2926  -50.3887  -57.3319 C.2       8 UNK         0.5039 
     34 O          28.1834  -50.8182  -58.4807 O.2       8 UNK        -0.5547 
     35 CA         27.6506  -51.1609  -56.1686 C.3       7 UNK         0.0281 
     36 CB         28.6913  -52.0220  -55.4340 C.3       7 UNK        -0.1963 
     37 N          26.9855  -50.2577  -55.2228 N.am      7 UNK        -0.4444 
     38 C          25.8185  -49.6399  -55.4587 C.2       7 UNK         0.5104 
     39 O          25.1537  -49.8018  -56.4810 O.2       7 UNK        -0.5100 
     40 CA         25.3115  -48.6592  -54.3870 C.3       6 UNK         0.0396 
     41 CB         24.4134  -49.3889  -53.3760 C.3       6 UNK        -0.1801 
     42 N          26.3954  -47.9811  -53.6727 N.am      6 UNK        -0.4747 
     43 C          27.1425  -46.9885  -54.1792 C.2       6 UNK         0.5012 
     44 O          26.9790  -46.5087  -55.3019 O.2       6 UNK        -0.5003 
     45 CA         28.2956  -46.4788  -53.2913 C.3       5 UNK         0.0782 
     46 C46        27.7958  -45.3570  -52.3466 C.3       11 UNK        -0.0868 
     47 S47        29.1185  -44.7166  -51.2625 S.3       11 UNK        -0.2515 
     48 C48        29.3871  -43.0380  -51.9228 C.3       11 UNK         0.0199 
     49 N          28.9703  -47.5614  -52.5583 N.am      5 UNK        -0.4607 
     50 C          29.5950  -48.5990  -53.1255 C.2       4 UNK         0.5031 
     51 O          29.5932  -48.8196  -54.3390 O.2       4 UNK        -0.5119 
     52 CA         30.2989  -49.5805  -52.1849 C.3       4 UNK         0.0263 
     53 CB         29.3025  -50.5983  -51.6043 C.3       4 UNK        -0.1967 
     54 N          31.3158  -50.2774  -52.9615 N.am      4 UNK        -0.4237 
     55 C          32.5123  -50.6831  -52.5274 C.2       3 UNK         0.4908 
     56 O          32.8977  -50.5710  -51.3626 O.2       3 UNK        -0.5102 
     57 CA         33.4419  -51.3225  -53.5680 C.3       3 UNK         0.0241 
     58 CB         32.7175  -51.8472  -54.8293 C.3       3 UNK        -0.1971 
     59 N          34.4749  -50.3613  -53.9537 N.am      3 UNK        -0.4139 
     60 C          35.7211  -50.6986  -54.3179 C.2       2 UNK         0.5016 
     61 O          36.1369  -51.8588  -54.2992 O.2       2 UNK        -0.5319 
     62 CA         36.6720  -49.5918  -54.8160 C.3       2 UNK         0.0286 
     63 CB         37.0996  -49.8636  -56.2696 C.3       2 UNK        -0.1963 
     64 N          36.0789  -48.2550  -54.7547 N.am      2 UNK        -0.4790 
     65 C          36.3182  -47.3492  -53.7982 C.2       1 UNK         0.5024 
     66 O          37.1067  -47.5303  -52.8686 O.2       1 UNK        -0.4888 
     67 H67        32.8525  -45.8055  -50.8748 H         1 UNK         0.0892 
     68 H68        31.5445  -46.5681  -51.7745 H         1 UNK         0.0892 
     69 H69        32.6573  -47.5594  -50.8246 H         1 UNK         0.0892 
     70 H70        34.6768  -45.3292  -52.0693 H         1 UNK         0.3107 
     71 H71        36.2386  -45.2396  -53.6028 H         1 UNK         0.0773 
     72 H72        35.7890  -45.5814  -55.9859 H         1 UNK         0.0680 
     73 H73        34.3363  -46.4876  -55.6617 H         1 UNK         0.0680 
     74 H74        32.2044  -45.7319  -55.1677 H         1 UNK         0.0650 
     75 H75        32.2551  -44.9424  -56.7236 H         1 UNK         0.0650 
     76 H76        31.3389  -44.5321  -53.1489 H         1 UNK         0.1397 
     77 H77        28.4451  -41.4703  -53.9303 H         1 UNK         0.1363 
     78 H78        31.0038  -42.8770  -57.0779 H         1 UNK         0.1355 
     79 H79        27.9335  -40.8828  -56.2310 H         1 UNK         0.0707 
     80 H80        29.4695  -40.0809  -56.3676 H         1 UNK         0.0707 
     81 H81        27.5731  -42.8288  -59.5808 H         1 UNK         0.1034 
     82 H82        28.7438  -43.7247  -58.6772 H         1 UNK         0.1034 
     83 H83        27.3761  -43.2155  -56.5421 H         1 UNK         0.0482 
     84 H84        26.6089  -40.8318  -58.4163 H         1 UNK         0.3460 
     85 H85        24.9344  -40.5698  -57.9835 H         1 UNK         0.3460 
     86 H86        26.8302  -45.3001  -56.8273 H         1 UNK         0.2989 
     87 H87        25.0919  -47.0122  -57.7949 H         1 UNK         0.0559 
     88 H88        24.3242  -47.0689  -60.1457 H         1 UNK         0.0848 
     89 H89        25.1581  -48.5637  -59.7521 H         1 UNK         0.0848 
     90 H90        25.9651  -47.3283  -60.7177 H         1 UNK         0.0848 
     91 H91        27.0028  -47.9360  -57.2206 H         1 UNK         0.3144 
     92 H92        30.0034  -48.7723  -58.7220 H         1 UNK         0.0727 
     93 H93        29.7237  -46.6812  -56.4884 H         1 UNK         0.0790 
     94 H94        30.7026  -46.5079  -57.9387 H         1 UNK         0.0790 
     95 H95        31.1196  -47.7268  -56.7427 H         1 UNK         0.0790 
     96 H96        29.0260  -49.0092  -56.0298 H         1 UNK         0.3215 
     97 H97        26.8974  -51.8305  -56.5902 H         1 UNK         0.0863 
     98 H98        28.2313  -52.6084  -54.6386 H         1 UNK         0.0808 
     99 H99        29.4827  -51.4186  -54.9920 H         1 UNK         0.0808 
    100 H100       29.1660  -52.7249  -56.1200 H         1 UNK         0.0808 
    101 H101       27.4888  -50.0266  -54.3794 H         1 UNK         0.3118 
    102 H102       24.7069  -47.9018  -54.8911 H         1 UNK         0.0546 
    103 H103       24.9602  -50.1550  -52.8248 H         1 UNK         0.0828 
    104 H104       23.5811  -49.8825  -53.8798 H         1 UNK         0.0828 
    105 H105       23.9849  -48.6951  -52.6525 H         1 UNK         0.0828 
    106 H106       26.6014  -48.3040  -52.7381 H         1 UNK         0.3005 
    107 H107       29.0347  -46.0465  -53.9693 H         1 UNK         0.1257 
    108 H108       26.9923  -45.7244  -51.7053 H         1 UNK         0.0775 
    109 H109       27.3693  -44.5333  -52.9228 H         1 UNK         0.0775 
    110 H110       28.4697  -42.4628  -51.7876 H         1 UNK         0.0840 
    111 H111       30.1498  -42.5438  -51.3198 H         1 UNK         0.0840 
    112 H112       29.0049  -47.4521  -51.5547 H         1 UNK         0.2987 
    113 H113       30.7674  -49.0187  -51.3753 H         1 UNK         0.0785 
    114 H114       28.5267  -50.1023  -51.0197 H         1 UNK         0.0798 
    115 H115       29.8035  -51.3038  -50.9410 H         1 UNK         0.0798 
    116 H116       28.8074  -51.1738  -52.3872 H         1 UNK         0.0798 
    117 H117       31.1220  -50.3025  -53.9541 H         1 UNK         0.3079 
    118 H118       33.9065  -52.1746  -53.0668 H         1 UNK         0.0794 
    119 H119       33.4011  -52.4126  -55.4630 H         1 UNK         0.0786 
    120 H120       32.3064  -51.0384  -55.4351 H         1 UNK         0.0786 
    121 H121       31.9008  -52.5209  -54.5658 H         1 UNK         0.0786 
    122 H122       34.2007  -49.3813  -53.9173 H         1 UNK         0.3032 
    123 H123       37.5647  -49.6366  -54.1877 H         1 UNK         0.1094 
    124 H124       36.2457  -49.8681  -56.9481 H         1 UNK         0.0794 
    125 H125       37.8052  -49.1111  -56.6223 H         1 UNK         0.0794 
    126 H126       37.5928  -50.8325  -56.3601 H         1 UNK         0.0794 
    127 H127       35.3855  -48.0378  -55.4565 H         1 UNK         0.3016 
@<TRIPOS>BOND
     1    1    2 1    
     2    1   67 1    
     3    1   68 1    
     4    1   69 1    
     5    2    3 2    
     6    2    4 am   BACKBONE|DICT|INTERRES
     7    4    5 1    
     8    4   70 1    
     9    5    6 1    
    10    5   65 1    
    11    5   71 1    
    12    6    7 1    
    13    6   72 1    
    14    6   73 1    
    15    7    8 1    
    16    8    9 1    
    17    8   74 1    
    18    8   75 1    
    19    9   10 ar   
    20    9   14 ar   
    21   10   11 ar   
    22   10   76 1    
    23   11   12 ar   
    24   11   48 1    
    25   12   13 ar   
    26   12   77 1    
    27   13   14 ar   
    28   13   15 1    
    29   14   78 1    
    30   15   16 1    
    31   15   79 1    
    32   15   80 1    
    33   16   17 1    
    34   17   18 1    
    35   17   81 1    
    36   17   82 1    
    37   18   19 1    
    38   18   22 1    
    39   18   83 1    
    40   19   20 am   BACKBONE|DICT|INTERRES
    41   19   21 2    
    42   20   84 1    
    43   20   85 1    
    44   22   23 am   BACKBONE|DICT|INTERRES
    45   22   86 1    
    46   23   24 2    
    47   23   25 1    
    48   25   26 1    
    49   25   27 1    
    50   25   87 1    
    51   26   88 1    
    52   26   89 1    
    53   26   90 1    
    54   27   28 am   BACKBONE|DICT|INTERRES
    55   27   91 1    
    56   28   29 2    
    57   28   30 1    
    58   30   31 1    
    59   30   32 1    
    60   30   92 1    
    61   31   93 1    
    62   31   94 1    
    63   31   95 1    
    64   32   33 am   BACKBONE|DICT|INTERRES
    65   32   96 1    
    66   33   34 2    
    67   33   35 1    
    68   35   36 1    
    69   35   37 1    
    70   35   97 1    
    71   36   98 1    
    72   36   99 1    
    73   36  100 1    
    74   37   38 am   BACKBONE|DICT|INTERRES
    75   37  101 1    
    76   38   39 2    
    77   38   40 1    
    78   40   41 1    
    79   40   42 1    
    80   40  102 1    
    81   41  103 1    
    82   41  104 1    
    83   41  105 1    
    84   42   43 am   BACKBONE|DICT|INTERRES
    85   42  106 1    
    86   43   44 2    
    87   43   45 1    
    88   45   46 1    
    89   45   49 1    
    90   45  107 1    
    91   46   47 1    
    92   46  108 1    
    93   46  109 1    
    94   47   48 1    
    95   48  110 1    
    96   48  111 1    
    97   49   50 am   BACKBONE|DICT|INTERRES
    98   49  112 1    
    99   50   51 2    
   100   50   52 1    
   101   52   53 1    
   102   52   54 1    
   103   52  113 1    
   104   53  114 1    
   105   53  115 1    
   106   53  116 1    
   107   54   55 am   BACKBONE|DICT|INTERRES
   108   54  117 1    
   109   55   56 2    
   110   55   57 1    
   111   57   58 1    
   112   57   59 1    
   113   57  118 1    
   114   58  119 1    
   115   58  120 1    
   116   58  121 1    
   117   59   60 am   BACKBONE|DICT|INTERRES
   118   59  122 1    
   119   60   61 2    
   120   60   62 1    
   121   62   63 1    
   122   62   64 1    
   123   62  123 1    
   124   63  124 1    
   125   63  125 1    
   126   63  126 1    
   127   64   65 am   BACKBONE|DICT|INTERRES
   128   64  127 1    
   129   65   66 2    
@<TRIPOS>SUBSTRUCTURE
     1 UNK         1 GROUP             0       ****    0 ROOT    
