@<TRIPOS>MOLECULE
3R134
127   129    1
SMALL
USER_CHARGES


@<TRIPOS>ATOM
      1 CA         36.2909  -47.5071  -52.9780 C.3       0 UNK        -0.1968 
      2 C          34.9657  -46.7630  -52.9244 C.2       0 UNK         0.4852 
      3 O          33.9116  -47.3980  -52.9198 O.2       0 UNK        -0.5359 
      4 N          35.0111  -45.4242  -52.8646 N.am      1 UNK        -0.4300 
      5 CA         33.8471  -44.5254  -52.9020 C.3       1 UNK         0.0863 
      6 C6         34.2672  -43.0386  -53.0416 C.3       11 UNK        -0.0953 
      7 S7         35.2345  -42.7040  -54.5531 S.3       11 UNK        -0.2369 
      8 C8         33.9516  -42.0687  -55.6822 C.3       11 UNK         0.0226 
      9 C9         32.9751  -43.1652  -56.0774 C.ar      11 UNK        -0.0699 
     10 C10        33.3230  -44.0867  -57.0692 C.ar      11 UNK        -0.0804 
     11 C11        32.4625  -45.1400  -57.3886 C.ar      11 UNK        -0.0871 
     12 C12        31.2429  -45.2622  -56.7148 C.ar      11 UNK        -0.1008 
     13 C13        30.8930  -44.3570  -55.7104 C.ar      11 UNK        -0.0735 
     14 C14        31.7494  -43.2926  -55.4159 C.ar      11 UNK        -0.0945 
     15 C15        29.6357  -44.5738  -54.8844 C.3       11 UNK         0.0169 
     16 S16        28.1620  -43.8505  -55.6643 S.3       11 UNK        -0.2669 
     17 C17        27.0984  -43.6362  -54.1941 C.3       11 UNK        -0.0850 
     18 CA         26.5131  -44.9696  -53.6398 C.3       10 UNK         0.0855 
     19 C          25.8057  -44.7891  -52.2611 C.2       10 UNK         0.5543 
     20 N          24.7863  -45.5751  -51.9358 N.am      10 UNK        -0.7343 
     21 O          26.2021  -43.9479  -51.4582 O.2       10 UNK        -0.5027 
     22 N          25.7296  -45.7185  -54.6381 N.am      10 UNK        -0.4495 
     23 C          24.5891  -45.3301  -55.2207 C.2       10 UNK         0.4903 
     24 O          24.0355  -44.2516  -55.0002 O.2       10 UNK        -0.4860 
     25 CA         23.9700  -46.3257  -56.2235 C.3       9 UNK         0.0227 
     26 CB         22.6274  -45.8328  -56.7964 C.3       9 UNK        -0.1964 
     27 N          24.8762  -46.6324  -57.3342 N.am      9 UNK        -0.4231 
     28 C          25.9412  -47.4410  -57.2690 C.2       9 UNK         0.5014 
     29 O          26.3034  -48.0169  -56.2386 O.2       9 UNK        -0.5270 
     30 CA         26.7637  -47.5824  -58.5589 C.3       8 UNK         0.0284 
     31 CB         27.8198  -46.4687  -58.6337 C.3       8 UNK        -0.1977 
     32 N          27.4261  -48.8861  -58.6289 N.am      8 UNK        -0.4342 
     33 C          26.7888  -50.0467  -58.8497 C.2       8 UNK         0.5039 
     34 O          25.5819  -50.1159  -59.0938 O.2       8 UNK        -0.5547 
     35 CA         27.6200  -51.3468  -58.7812 C.3       7 UNK         0.0281 
     36 CB         27.0345  -52.4822  -59.6489 C.3       7 UNK        -0.1963 
     37 N          29.0465  -51.1483  -59.0601 N.am      7 UNK        -0.4444 
     38 C          29.6072  -50.7101  -60.1994 C.2       7 UNK         0.5104 
     39 O          28.9813  -50.5267  -61.2444 O.2       7 UNK        -0.5100 
     40 CA         31.1230  -50.4021  -60.1573 C.3       6 UNK         0.0396 
     41 CB         31.5038  -49.2380  -61.0969 C.3       6 UNK        -0.1801 
     42 N          31.6538  -50.1562  -58.8062 N.am      6 UNK        -0.4747 
     43 C          31.2347  -49.2178  -57.9426 C.2       6 UNK         0.5012 
     44 O          30.3236  -48.4236  -58.1867 O.2       6 UNK        -0.5003 
     45 CA         31.8926  -49.2114  -56.5457 C.3       5 UNK         0.0782 
     46 C46        33.0051  -48.1378  -56.3303 C.3       11 UNK        -0.0868 
     47 S47        33.9249  -47.4983  -57.7845 S.3       11 UNK        -0.2515 
     48 C48        32.8595  -46.1631  -58.4425 C.3       11 UNK         0.0199 
     49 N          30.8600  -49.0920  -55.5116 N.am      5 UNK        -0.4607 
     50 C          29.8157  -49.9097  -55.3257 C.2       4 UNK         0.5031 
     51 O          29.6312  -50.9389  -55.9797 O.2       4 UNK        -0.5119 
     52 CA         28.8406  -49.5157  -54.1977 C.3       4 UNK         0.0263 
     53 CB         27.6167  -50.4475  -54.1234 C.3       4 UNK        -0.1967 
     54 N          29.5118  -49.5003  -52.8940 N.am      4 UNK        -0.4237 
     55 C          30.3463  -48.5429  -52.4679 C.2       3 UNK         0.4908 
     56 O          30.5744  -47.5117  -53.1054 O.2       3 UNK        -0.5102 
     57 CA         31.0694  -48.8179  -51.1412 C.3       3 UNK         0.0241 
     58 CB         32.0387  -50.0057  -51.2874 C.3       3 UNK        -0.1971 
     59 N          31.8451  -47.6456  -50.7422 N.am      3 UNK        -0.4139 
     60 C          31.5820  -46.8590  -49.6907 C.2       2 UNK         0.5016 
     61 O          30.6579  -47.0603  -48.9009 O.2       2 UNK        -0.5319 
     62 CA         32.5095  -45.6501  -49.4522 C.3       2 UNK         0.0286 
     63 CB         33.4369  -45.9124  -48.2537 C.3       2 UNK        -0.1963 
     64 N          33.3296  -45.3037  -50.6157 N.am      2 UNK        -0.4790 
     65 C          32.8706  -44.6900  -51.7157 C.2       1 UNK         0.5024 
     66 O          31.7223  -44.2574  -51.8166 O.2       1 UNK        -0.4888 
     67 H67        36.3510  -48.0942  -53.8940 H         1 UNK         0.0892 
     68 H68        37.1426  -46.8276  -52.9537 H         1 UNK         0.0892 
     69 H69        36.3735  -48.1873  -52.1308 H         1 UNK         0.0892 
     70 H70        35.9086  -44.9604  -52.8730 H         1 UNK         0.3107 
     71 H71        33.2797  -44.8112  -53.7883 H         1 UNK         0.0773 
     72 H72        33.3945  -42.3829  -53.0367 H         1 UNK         0.0680 
     73 H73        34.8699  -42.7355  -52.1835 H         1 UNK         0.0680 
     74 H74        33.4301  -41.2317  -55.2153 H         1 UNK         0.0650 
     75 H75        34.4337  -41.6690  -56.5755 H         1 UNK         0.0650 
     76 H76        34.2774  -44.0011  -57.5708 H         1 UNK         0.1397 
     77 H77        30.5882  -46.0925  -56.9384 H         1 UNK         0.1363 
     78 H78        31.4862  -42.5973  -54.6307 H         1 UNK         0.1355 
     79 H79        29.4695  -45.6421  -54.7385 H         1 UNK         0.0707 
     80 H80        29.7779  -44.1523  -53.8881 H         1 UNK         0.0707 
     81 H81        26.2932  -42.9466  -54.4511 H         1 UNK         0.1034 
     82 H82        27.6854  -43.1234  -53.4299 H         1 UNK         0.1034 
     83 H83        27.3598  -45.6171  -53.4108 H         1 UNK         0.0482 
     84 H84        24.4587  -46.2774  -52.5792 H         1 UNK         0.3460 
     85 H85        24.3395  -45.4607  -51.0397 H         1 UNK         0.3460 
     86 H86        26.1084  -46.6172  -54.9245 H         1 UNK         0.2989 
     87 H87        23.7723  -47.2494  -55.6754 H         1 UNK         0.0559 
     88 H88        22.1773  -46.5780  -57.4526 H         1 UNK         0.0848 
     89 H89        22.7438  -44.9096  -57.3655 H         1 UNK         0.0848 
     90 H90        21.9109  -45.6348  -55.9979 H         1 UNK         0.0848 
     91 H91        24.6838  -46.1629  -58.2076 H         1 UNK         0.3144 
     92 H92        26.0973  -47.4921  -59.4195 H         1 UNK         0.0727 
     93 H93        28.4540  -46.5750  -59.5142 H         1 UNK         0.0790 
     94 H94        28.4634  -46.4732  -57.7539 H         1 UNK         0.0790 
     95 H95        27.3523  -45.4847  -58.6843 H         1 UNK         0.0790 
     96 H96        28.4218  -48.8941  -58.4254 H         1 UNK         0.3215 
     97 H97        27.5652  -51.6719  -57.7410 H         1 UNK         0.0863 
     98 H98        27.6361  -53.3881  -59.5767 H         1 UNK         0.0808 
     99 H99        26.9746  -52.2002  -60.7003 H         1 UNK         0.0808 
    100 H100       26.0251  -52.7397  -59.3259 H         1 UNK         0.0808 
    101 H101       29.6481  -51.2364  -58.2495 H         1 UNK         0.3118 
    102 H102       31.6232  -51.3001  -60.5224 H         1 UNK         0.0546 
    103 H103       30.9744  -48.3204  -60.8378 H         1 UNK         0.0828 
    104 H104       31.2582  -49.4723  -62.1333 H         1 UNK         0.0828 
    105 H105       32.5729  -49.0294  -61.0587 H         1 UNK         0.0828 
    106 H106       32.3947  -50.7805  -58.5163 H         1 UNK         0.3005 
    107 H107       32.3522  -50.1921  -56.4054 H         1 UNK         0.1257 
    108 H108       32.6167  -47.2870  -55.7725 H         1 UNK         0.0775 
    109 H109       33.7516  -48.5573  -55.6540 H         1 UNK         0.0775 
    110 H110       33.3968  -45.6617  -59.2488 H         1 UNK         0.0840 
    111 H111       31.9714  -46.5868  -58.9097 H         1 UNK         0.0840 
    112 H112       30.9334  -48.2926  -54.8898 H         1 UNK         0.2987 
    113 H113       28.4773  -48.5100  -54.4217 H         1 UNK         0.0785 
    114 H114       26.9098  -50.1133  -53.3640 H         1 UNK         0.0798 
    115 H115       27.9008  -51.4750  -53.8932 H         1 UNK         0.0798 
    116 H116       27.0823  -50.4611  -55.0746 H         1 UNK         0.0798 
    117 H117       29.3985  -50.3283  -52.3270 H         1 UNK         0.3079 
    118 H118       30.3177  -49.0613  -50.3875 H         1 UNK         0.0794 
    119 H119       31.5097  -50.9288  -51.5259 H         1 UNK         0.0786 
    120 H120       32.5878  -50.1822  -50.3622 H         1 UNK         0.0786 
    121 H121       32.7693  -49.8331  -52.0793 H         1 UNK         0.0786 
    122 H122       32.5681  -47.3671  -51.4001 H         1 UNK         0.3032 
    123 H123       31.8704  -44.7973  -49.2116 H         1 UNK         0.1094 
    124 H124       34.1027  -46.7572  -48.4352 H         1 UNK         0.0794 
    125 H125       34.0515  -45.0406  -48.0284 H         1 UNK         0.0794 
    126 H126       32.8601  -46.1398  -47.3560 H         1 UNK         0.0794 
    127 H127       34.2872  -45.6244  -50.6142 H         1 UNK         0.3016 
@<TRIPOS>BOND
     1    1    2 1    
     2    1   67 1    
     3    1   68 1    
     4    1   69 1    
     5    2    3 2    
     6    2    4 am   BACKBONE|DICT|INTERRES
     7    4    5 1    
     8    4   70 1    
     9    5    6 1    
    10    5   65 1    
    11    5   71 1    
    12    6    7 1    
    13    6   72 1    
    14    6   73 1    
    15    7    8 1    
    16    8    9 1    
    17    8   74 1    
    18    8   75 1    
    19    9   10 ar   
    20    9   14 ar   
    21   10   11 ar   
    22   10   76 1    
    23   11   12 ar   
    24   11   48 1    
    25   12   13 ar   
    26   12   77 1    
    27   13   14 ar   
    28   13   15 1    
    29   14   78 1    
    30   15   16 1    
    31   15   79 1    
    32   15   80 1    
    33   16   17 1    
    34   17   18 1    
    35   17   81 1    
    36   17   82 1    
    37   18   19 1    
    38   18   22 1    
    39   18   83 1    
    40   19   20 am   BACKBONE|DICT|INTERRES
    41   19   21 2    
    42   20   84 1    
    43   20   85 1    
    44   22   23 am   BACKBONE|DICT|INTERRES
    45   22   86 1    
    46   23   24 2    
    47   23   25 1    
    48   25   26 1    
    49   25   27 1    
    50   25   87 1    
    51   26   88 1    
    52   26   89 1    
    53   26   90 1    
    54   27   28 am   BACKBONE|DICT|INTERRES
    55   27   91 1    
    56   28   29 2    
    57   28   30 1    
    58   30   31 1    
    59   30   32 1    
    60   30   92 1    
    61   31   93 1    
    62   31   94 1    
    63   31   95 1    
    64   32   33 am   BACKBONE|DICT|INTERRES
    65   32   96 1    
    66   33   34 2    
    67   33   35 1    
    68   35   36 1    
    69   35   37 1    
    70   35   97 1    
    71   36   98 1    
    72   36   99 1    
    73   36  100 1    
    74   37   38 am   BACKBONE|DICT|INTERRES
    75   37  101 1    
    76   38   39 2    
    77   38   40 1    
    78   40   41 1    
    79   40   42 1    
    80   40  102 1    
    81   41  103 1    
    82   41  104 1    
    83   41  105 1    
    84   42   43 am   BACKBONE|DICT|INTERRES
    85   42  106 1    
    86   43   44 2    
    87   43   45 1    
    88   45   46 1    
    89   45   49 1    
    90   45  107 1    
    91   46   47 1    
    92   46  108 1    
    93   46  109 1    
    94   47   48 1    
    95   48  110 1    
    96   48  111 1    
    97   49   50 am   BACKBONE|DICT|INTERRES
    98   49  112 1    
    99   50   51 2    
   100   50   52 1    
   101   52   53 1    
   102   52   54 1    
   103   52  113 1    
   104   53  114 1    
   105   53  115 1    
   106   53  116 1    
   107   54   55 am   BACKBONE|DICT|INTERRES
   108   54  117 1    
   109   55   56 2    
   110   55   57 1    
   111   57   58 1    
   112   57   59 1    
   113   57  118 1    
   114   58  119 1    
   115   58  120 1    
   116   58  121 1    
   117   59   60 am   BACKBONE|DICT|INTERRES
   118   59  122 1    
   119   60   61 2    
   120   60   62 1    
   121   62   63 1    
   122   62   64 1    
   123   62  123 1    
   124   63  124 1    
   125   63  125 1    
   126   63  126 1    
   127   64   65 am   BACKBONE|DICT|INTERRES
   128   64  127 1    
   129   65   66 2    
@<TRIPOS>SUBSTRUCTURE
     1 UNK         1 GROUP             0       ****    0 ROOT    
