@<TRIPOS>MOLECULE
3R134
127   129    1
SMALL
USER_CHARGES


@<TRIPOS>ATOM
      1 CA         33.4859  -51.1225  -56.3623 C.3       0 UNK        -0.1968 
      2 C          33.5786  -50.0330  -55.3056 C.2       0 UNK         0.4852 
      3 O          33.2790  -50.2925  -54.1401 O.2       0 UNK        -0.5359 
      4 N          34.0110  -48.8277  -55.7055 N.am      1 UNK        -0.4300 
      5 CA         34.0742  -47.5927  -54.9055 C.3       1 UNK         0.0863 
      6 C6         34.7109  -46.4268  -55.7019 C.3       11 UNK        -0.0953 
      7 S7         33.9537  -46.1698  -57.3411 S.3       11 UNK        -0.2369 
      8 C8         33.6773  -44.3735  -57.3466 C.3       11 UNK         0.0226 
      9 C9         32.3543  -43.9973  -56.6981 C.ar      11 UNK        -0.0699 
     10 C10        32.3126  -43.4722  -55.4023 C.ar      11 UNK        -0.0804 
     11 C11        31.0976  -43.0591  -54.8451 C.ar      11 UNK        -0.0871 
     12 C12        29.9222  -43.1771  -55.5945 C.ar      11 UNK        -0.1008 
     13 C13        29.9484  -43.7279  -56.8789 C.ar      11 UNK        -0.0735 
     14 C14        31.1685  -44.1341  -57.4244 C.ar      11 UNK        -0.0945 
     15 C15        28.6698  -43.8614  -57.6929 C.3       11 UNK         0.0169 
     16 S16        27.5624  -45.1248  -56.9968 S.3       11 UNK        -0.2669 
     17 C17        26.4058  -44.1045  -56.0128 C.3       11 UNK        -0.0850 
     18 CA         25.0175  -44.7811  -55.8171 C.3       10 UNK         0.0855 
     19 C          24.0634  -43.9520  -54.9044 C.2       10 UNK         0.5543 
     20 N          22.7501  -44.0540  -55.0693 N.am      10 UNK        -0.7343 
     21 O          24.5104  -43.2238  -54.0215 O.2       10 UNK        -0.5027 
     22 N          24.4218  -45.2385  -57.0856 N.am      10 UNK        -0.4495 
     23 C          24.0331  -44.4713  -58.1108 C.2       10 UNK         0.4903 
     24 O          24.0379  -43.2393  -58.0962 O.2       10 UNK        -0.4860 
     25 CA         23.6209  -45.2295  -59.3885 C.3       9 UNK         0.0227 
     26 CB         22.8994  -44.3254  -60.4054 C.3       9 UNK        -0.1964 
     27 N          24.7914  -45.8341  -60.0320 N.am      9 UNK        -0.4231 
     28 C          25.4389  -46.9235  -59.5966 C.2       9 UNK         0.5014 
     29 O          25.0507  -47.6042  -58.6430 O.2       9 UNK        -0.5270 
     30 CA         26.7492  -47.3062  -60.3036 C.3       8 UNK         0.0284 
     31 CB         27.3358  -46.2023  -61.2105 C.3       8 UNK        -0.1977 
     32 N          27.7156  -47.6607  -59.2701 N.am      8 UNK        -0.4342 
     33 C          28.6827  -48.5780  -59.3653 C.2       8 UNK         0.5039 
     34 O          28.9198  -49.2209  -60.3891 O.2       8 UNK        -0.5547 
     35 CA         29.5374  -48.8226  -58.1069 C.3       7 UNK         0.0281 
     36 CB         30.8976  -48.1174  -58.2309 C.3       7 UNK        -0.1963 
     37 N          28.8887  -48.3776  -56.8702 N.am      7 UNK        -0.4444 
     38 C          27.8922  -49.0229  -56.2468 C.2       7 UNK         0.5104 
     39 O          27.4194  -50.0889  -56.6426 O.2       7 UNK        -0.5100 
     40 CA         27.3557  -48.3707  -54.9601 C.3       6 UNK         0.0396 
     41 CB         26.7224  -49.3845  -53.9883 C.3       6 UNK        -0.1801 
     42 N          28.4240  -47.6369  -54.2842 N.am      6 UNK        -0.4747 
     43 C          28.2898  -46.5244  -53.5551 C.2       6 UNK         0.5012 
     44 O          27.2065  -45.9933  -53.3076 O.2       6 UNK        -0.5003 
     45 CA         29.5988  -45.9452  -52.9752 C.3       5 UNK         0.0782 
     46 C46        29.4227  -44.5155  -52.4058 C.3       11 UNK        -0.0868 
     47 S47        31.0388  -43.7132  -52.1352 S.3       11 UNK        -0.2515 
     48 C48        31.0592  -42.4496  -53.4491 C.3       11 UNK         0.0199 
     49 N          30.1423  -46.8620  -51.9662 N.am      5 UNK        -0.4607 
     50 C          30.7722  -48.0110  -52.2315 C.2       4 UNK         0.5031 
     51 O          31.0411  -48.3915  -53.3721 O.2       4 UNK        -0.5119 
     52 CA         31.0549  -48.9203  -51.0341 C.3       4 UNK         0.0263 
     53 CB         29.7969  -49.7493  -50.7004 C.3       4 UNK        -0.1967 
     54 N          32.1816  -49.8013  -51.3347 N.am      4 UNK        -0.4237 
     55 C          32.8575  -50.5121  -50.4213 C.2       3 UNK         0.4908 
     56 O          32.5952  -50.5103  -49.2176 O.2       3 UNK        -0.5102 
     57 CA         34.0405  -51.3503  -50.9223 C.3       3 UNK         0.0241 
     58 CB         33.5581  -52.6040  -51.6721 C.3       3 UNK        -0.1971 
     59 N          34.9076  -50.5483  -51.7832 N.am      3 UNK        -0.4139 
     60 C          35.9110  -49.7805  -51.3339 C.2       2 UNK         0.5016 
     61 O          36.2657  -49.7391  -50.1548 O.2       2 UNK        -0.5319 
     62 CA         36.6582  -48.9109  -52.3614 C.3       2 UNK         0.0286 
     63 CB         37.9578  -49.6016  -52.8057 C.3       2 UNK        -0.1963 
     64 N          35.8609  -48.5868  -53.5458 N.am      2 UNK        -0.4790 
     65 C          34.8145  -47.7476  -53.5599 C.2       1 UNK         0.5024 
     66 O          34.4316  -47.1159  -52.5750 O.2       1 UNK        -0.4888 
     67 H67        34.1156  -51.9675  -56.0857 H         1 UNK         0.0892 
     68 H68        32.4579  -51.4749  -56.4428 H         1 UNK         0.0892 
     69 H69        33.8011  -50.7690  -57.3438 H         1 UNK         0.0892 
     70 H70        34.2473  -48.6965  -56.6789 H         1 UNK         0.3107 
     71 H71        33.0437  -47.3175  -54.6750 H         1 UNK         0.0773 
     72 H72        35.7764  -46.6049  -55.8612 H         1 UNK         0.0680 
     73 H73        34.6414  -45.5031  -55.1246 H         1 UNK         0.0680 
     74 H74        33.6776  -44.0287  -58.3817 H         1 UNK         0.0650 
     75 H75        34.5117  -43.8638  -56.8623 H         1 UNK         0.0650 
     76 H76        33.2265  -43.3653  -54.8341 H         1 UNK         0.1397 
     77 H77        28.9831  -42.8397  -55.1802 H         1 UNK         0.1363 
     78 H78        31.2027  -44.5424  -58.4253 H         1 UNK         0.1355 
     79 H79        28.1688  -42.8949  -57.7575 H         1 UNK         0.0707 
     80 H80        28.9026  -44.1461  -58.7201 H         1 UNK         0.0707 
     81 H81        26.8689  -43.9115  -55.0442 H         1 UNK         0.1034 
     82 H82        26.2769  -43.1311  -56.4879 H         1 UNK         0.1034 
     83 H83        25.1941  -45.6947  -55.2498 H         1 UNK         0.0482 
     84 H84        22.1328  -43.5231  -54.4753 H         1 UNK         0.3460 
     85 H85        22.3733  -44.6511  -55.7879 H         1 UNK         0.3460 
     86 H86        24.4358  -46.2406  -57.2421 H         1 UNK         0.2989 
     87 H87        22.9275  -46.0216  -59.0977 H         1 UNK         0.0559 
     88 H88        23.5424  -43.5200  -60.7628 H         1 UNK         0.0848 
     89 H89        22.0178  -43.8636  -59.9588 H         1 UNK         0.0848 
     90 H90        22.5610  -44.8938  -61.2719 H         1 UNK         0.0848 
     91 H91        25.1984  -45.3166  -60.7977 H         1 UNK         0.3144 
     92 H92        26.5325  -48.1865  -60.9122 H         1 UNK         0.0727 
     93 H93        27.5232  -45.2803  -60.6582 H         1 UNK         0.0790 
     94 H94        26.6691  -45.9709  -62.0420 H         1 UNK         0.0790 
     95 H95        28.2827  -46.5192  -61.6483 H         1 UNK         0.0790 
     96 H96        27.5619  -47.2177  -58.3729 H         1 UNK         0.3215 
     97 H97        29.7146  -49.8980  -58.0354 H         1 UNK         0.0863 
     98 H98        30.7860  -47.0357  -58.3102 H         1 UNK         0.0808 
     99 H99        31.4346  -48.4552  -59.1183 H         1 UNK         0.0808 
    100 H100       31.5328  -48.3258  -57.3699 H         1 UNK         0.0808 
    101 H101       29.1929  -47.4931  -56.4883 H         1 UNK         0.3118 
    102 H102       26.5839  -47.6669  -55.2762 H         1 UNK         0.0546 
    103 H103       27.4479  -50.1291  -53.6588 H         1 UNK         0.0828 
    104 H104       25.8946  -49.9167  -54.4586 H         1 UNK         0.0828 
    105 H105       26.3239  -48.8897  -53.1026 H         1 UNK         0.0828 
    106 H106       29.3531  -48.0490  -54.3380 H         1 UNK         0.3005 
    107 H107       30.3026  -45.8825  -53.8098 H         1 UNK         0.1257 
    108 H108       28.8781  -44.5396  -51.4603 H         1 UNK         0.0775 
    109 H109       28.8244  -43.8941  -53.0730 H         1 UNK         0.0775 
    110 H110       30.1918  -41.7969  -53.3377 H         1 UNK         0.0840 
    111 H111       31.9330  -41.8119  -53.3072 H         1 UNK         0.0840 
    112 H112       29.9313  -46.6314  -51.0063 H         1 UNK         0.2987 
    113 H113       31.3205  -48.2931  -50.1803 H         1 UNK         0.0785 
    114 H114       28.9370  -49.1051  -50.5129 H         1 UNK         0.0798 
    115 H115       29.9385  -50.3579  -49.8075 H         1 UNK         0.0798 
    116 H116       29.5302  -50.4170  -51.5208 H         1 UNK         0.0798 
    117 H117       32.4509  -49.8392  -52.3168 H         1 UNK         0.3079 
    118 H118       34.6077  -51.6871  -50.0516 H         1 UNK         0.0794 
    119 H119       32.9468  -53.2317  -51.0225 H         1 UNK         0.0786 
    120 H120       34.3988  -53.2097  -52.0105 H         1 UNK         0.0786 
    121 H121       32.9529  -52.3558  -52.5443 H         1 UNK         0.0786 
    122 H122       34.6215  -50.4677  -52.7551 H         1 UNK         0.3032 
    123 H123       36.9201  -47.9751  -51.8618 H         1 UNK         0.1094 
    124 H124       38.5905  -49.8313  -51.9470 H         1 UNK         0.0794 
    125 H125       37.7600  -50.5404  -53.3245 H         1 UNK         0.0794 
    126 H126       38.5393  -48.9639  -53.4719 H         1 UNK         0.0794 
    127 H127       36.1000  -49.0634  -54.4037 H         1 UNK         0.3016 
@<TRIPOS>BOND
     1    1    2 1    
     2    1   67 1    
     3    1   68 1    
     4    1   69 1    
     5    2    3 2    
     6    2    4 am   BACKBONE|DICT|INTERRES
     7    4    5 1    
     8    4   70 1    
     9    5    6 1    
    10    5   65 1    
    11    5   71 1    
    12    6    7 1    
    13    6   72 1    
    14    6   73 1    
    15    7    8 1    
    16    8    9 1    
    17    8   74 1    
    18    8   75 1    
    19    9   10 ar   
    20    9   14 ar   
    21   10   11 ar   
    22   10   76 1    
    23   11   12 ar   
    24   11   48 1    
    25   12   13 ar   
    26   12   77 1    
    27   13   14 ar   
    28   13   15 1    
    29   14   78 1    
    30   15   16 1    
    31   15   79 1    
    32   15   80 1    
    33   16   17 1    
    34   17   18 1    
    35   17   81 1    
    36   17   82 1    
    37   18   19 1    
    38   18   22 1    
    39   18   83 1    
    40   19   20 am   BACKBONE|DICT|INTERRES
    41   19   21 2    
    42   20   84 1    
    43   20   85 1    
    44   22   23 am   BACKBONE|DICT|INTERRES
    45   22   86 1    
    46   23   24 2    
    47   23   25 1    
    48   25   26 1    
    49   25   27 1    
    50   25   87 1    
    51   26   88 1    
    52   26   89 1    
    53   26   90 1    
    54   27   28 am   BACKBONE|DICT|INTERRES
    55   27   91 1    
    56   28   29 2    
    57   28   30 1    
    58   30   31 1    
    59   30   32 1    
    60   30   92 1    
    61   31   93 1    
    62   31   94 1    
    63   31   95 1    
    64   32   33 am   BACKBONE|DICT|INTERRES
    65   32   96 1    
    66   33   34 2    
    67   33   35 1    
    68   35   36 1    
    69   35   37 1    
    70   35   97 1    
    71   36   98 1    
    72   36   99 1    
    73   36  100 1    
    74   37   38 am   BACKBONE|DICT|INTERRES
    75   37  101 1    
    76   38   39 2    
    77   38   40 1    
    78   40   41 1    
    79   40   42 1    
    80   40  102 1    
    81   41  103 1    
    82   41  104 1    
    83   41  105 1    
    84   42   43 am   BACKBONE|DICT|INTERRES
    85   42  106 1    
    86   43   44 2    
    87   43   45 1    
    88   45   46 1    
    89   45   49 1    
    90   45  107 1    
    91   46   47 1    
    92   46  108 1    
    93   46  109 1    
    94   47   48 1    
    95   48  110 1    
    96   48  111 1    
    97   49   50 am   BACKBONE|DICT|INTERRES
    98   49  112 1    
    99   50   51 2    
   100   50   52 1    
   101   52   53 1    
   102   52   54 1    
   103   52  113 1    
   104   53  114 1    
   105   53  115 1    
   106   53  116 1    
   107   54   55 am   BACKBONE|DICT|INTERRES
   108   54  117 1    
   109   55   56 2    
   110   55   57 1    
   111   57   58 1    
   112   57   59 1    
   113   57  118 1    
   114   58  119 1    
   115   58  120 1    
   116   58  121 1    
   117   59   60 am   BACKBONE|DICT|INTERRES
   118   59  122 1    
   119   60   61 2    
   120   60   62 1    
   121   62   63 1    
   122   62   64 1    
   123   62  123 1    
   124   63  124 1    
   125   63  125 1    
   126   63  126 1    
   127   64   65 am   BACKBONE|DICT|INTERRES
   128   64  127 1    
   129   65   66 2    
@<TRIPOS>SUBSTRUCTURE
     1 UNK         1 GROUP             0       ****    0 ROOT    
