@<TRIPOS>MOLECULE
3R134
127   129    1
SMALL
USER_CHARGES


@<TRIPOS>ATOM
      1 CA         33.1322  -44.9076  -49.7178 C.3       0 UNK        -0.1968 
      2 C          34.1324  -44.8453  -50.8626 C.2       0 UNK         0.4852 
      3 O          34.5248  -43.7529  -51.2745 O.2       0 UNK        -0.5359 
      4 N          34.5485  -46.0086  -51.3713 N.am      1 UNK        -0.4300 
      5 CA         35.5261  -46.1758  -52.4452 C.3       1 UNK         0.0863 
      6 C6         34.9618  -45.8083  -53.8480 C.3       11 UNK        -0.0953 
      7 S7         33.6262  -46.9080  -54.4311 S.3       11 UNK        -0.2369 
      8 C8         32.9071  -45.8993  -55.7687 C.3       11 UNK         0.0226 
      9 C9         31.8810  -44.8457  -55.3440 C.ar      11 UNK        -0.0699 
     10 C10        31.5979  -44.5401  -54.0052 C.ar      11 UNK        -0.0804 
     11 C11        30.6120  -43.6032  -53.6791 C.ar      11 UNK        -0.0871 
     12 C12        29.9278  -42.9408  -54.6996 C.ar      11 UNK        -0.1008 
     13 C13        30.1979  -43.2298  -56.0392 C.ar      11 UNK        -0.0735 
     14 C14        31.1790  -44.1754  -56.3507 C.ar      11 UNK        -0.0945 
     15 C15        29.4217  -42.5347  -57.1494 C.3       11 UNK         0.0169 
     16 S16        27.6282  -42.7878  -56.9640 S.3       11 UNK        -0.2669 
     17 C17        27.0320  -42.4466  -58.6554 C.3       11 UNK        -0.0850 
     18 CA         25.6252  -43.0471  -58.9150 C.3       10 UNK         0.0855 
     19 C          25.1802  -42.7670  -60.3767 C.2       10 UNK         0.5543 
     20 N          24.3991  -41.7186  -60.5976 N.am      10 UNK        -0.7343 
     21 O          25.5790  -43.4583  -61.3117 O.2       10 UNK        -0.5027 
     22 N          25.5902  -44.4694  -58.5478 N.am      10 UNK        -0.4495 
     23 C          24.5414  -45.2970  -58.6055 C.2       10 UNK         0.4903 
     24 O          23.4223  -44.9610  -58.9957 O.2       10 UNK        -0.4860 
     25 CA         24.7613  -46.7314  -58.0812 C.3       9 UNK         0.0227 
     26 CB         24.0041  -47.7869  -58.9140 C.3       9 UNK        -0.1964 
     27 N          26.1706  -47.1103  -57.9012 N.am      9 UNK        -0.4231 
     28 C          27.1063  -47.2848  -58.8486 C.2       9 UNK         0.5014 
     29 O          26.9265  -47.0837  -60.0498 O.2       9 UNK        -0.5270 
     30 CA         28.4790  -47.7886  -58.3684 C.3       8 UNK         0.0284 
     31 CB         29.3274  -46.6288  -57.8255 C.3       8 UNK        -0.1977 
     32 N          28.3630  -48.8343  -57.3489 N.am      8 UNK        -0.4342 
     33 C          27.8383  -50.0503  -57.5648 C.2       8 UNK         0.5039 
     34 O          27.5127  -50.4732  -58.6747 O.2       8 UNK        -0.5547 
     35 CA         27.6030  -50.9317  -56.3288 C.3       7 UNK         0.0281 
     36 CB         28.8789  -51.6987  -55.9428 C.3       7 UNK        -0.1963 
     37 N          27.1139  -50.1442  -55.1933 N.am      7 UNK        -0.4444 
     38 C          25.8581  -49.6835  -55.0852 C.2       7 UNK         0.5104 
     39 O          24.9619  -49.9454  -55.8869 O.2       7 UNK        -0.5100 
     40 CA         25.5408  -48.7698  -53.8871 C.3       6 UNK         0.0396 
     41 CB         24.9592  -49.5926  -52.7269 C.3       6 UNK        -0.1801 
     42 N          26.6999  -48.0123  -53.4084 N.am      6 UNK        -0.4747 
     43 C          27.2772  -46.9947  -54.0657 C.2       6 UNK         0.5012 
     44 O          26.8760  -46.5675  -55.1483 O.2       6 UNK        -0.5003 
     45 CA         28.5593  -46.4170  -53.4303 C.3       5 UNK         0.0782 
     46 C46        28.2228  -45.3289  -52.3732 C.3       11 UNK        -0.0868 
     47 S47        29.6617  -44.8153  -51.3633 S.3       11 UNK        -0.2515 
     48 C48        30.2602  -43.3250  -52.2253 C.3       11 UNK         0.0199 
     49 N          29.4167  -47.4804  -52.8912 N.am      5 UNK        -0.4607 
     50 C          30.0029  -48.4293  -53.6267 C.2       4 UNK         0.5031 
     51 O          29.8448  -48.5526  -54.8447 O.2       4 UNK        -0.5119 
     52 CA         30.8629  -49.4412  -52.8687 C.3       4 UNK         0.0263 
     53 CB         29.9993  -50.5817  -52.2984 C.3       4 UNK        -0.1967 
     54 N          31.8585  -49.9627  -53.7961 N.am      4 UNK        -0.4237 
     55 C          33.0209  -50.5286  -53.4568 C.2       3 UNK         0.4908 
     56 O          33.3357  -50.7880  -52.2942 O.2       3 UNK        -0.5102 
     57 CA         34.0161  -50.8375  -54.5899 C.3       3 UNK         0.0241 
     58 CB         33.4697  -50.5628  -56.0083 C.3       3 UNK        -0.1971 
     59 N          35.2108  -50.0236  -54.3738 N.am      3 UNK        -0.4139 
     60 C          36.3517  -50.4438  -53.8112 C.2       2 UNK         0.5016 
     61 O          36.5894  -51.6190  -53.5277 O.2       2 UNK        -0.5319 
     62 CA         37.4191  -49.3708  -53.5120 C.3       2 UNK         0.0286 
     63 CB         38.5000  -49.3686  -54.6056 C.3       2 UNK        -0.1963 
     64 N          36.8723  -48.0143  -53.3753 N.am      2 UNK        -0.4790 
     65 C          36.1056  -47.6032  -52.3545 C.2       1 UNK         0.5024 
     66 O          35.8388  -48.3119  -51.3798 O.2       1 UNK        -0.4888 
     67 H67        32.3400  -44.1752  -49.8671 H         1 UNK         0.0892 
     68 H68        32.6686  -45.8907  -49.6380 H         1 UNK         0.0892 
     69 H69        33.6279  -44.6836  -48.7739 H         1 UNK         0.0892 
     70 H70        34.2581  -46.8868  -50.9584 H         1 UNK         0.3107 
     71 H71        36.3611  -45.5050  -52.2325 H         1 UNK         0.0773 
     72 H72        34.5879  -44.7837  -53.8343 H         1 UNK         0.0680 
     73 H73        35.7572  -45.8093  -54.5945 H         1 UNK         0.0680 
     74 H74        32.4263  -46.5877  -56.4643 H         1 UNK         0.0650 
     75 H75        33.7118  -45.4150  -56.3237 H         1 UNK         0.0650 
     76 H76        32.1138  -45.0453  -53.2022 H         1 UNK         0.1397 
     77 H77        29.1623  -42.2165  -54.4560 H         1 UNK         0.1363 
     78 H78        31.3888  -44.4056  -57.3863 H         1 UNK         0.1355 
     79 H79        29.6401  -41.4661  -57.1337 H         1 UNK         0.0707 
     80 H80        29.7430  -42.9063  -58.1235 H         1 UNK         0.0707 
     81 H81        27.0213  -41.3653  -58.8060 H         1 UNK         0.1034 
     82 H82        27.7488  -42.8502  -59.3735 H         1 UNK         0.1034 
     83 H83        24.9204  -42.5467  -58.2479 H         1 UNK         0.0482 
     84 H84        24.1144  -41.5097  -61.5420 H         1 UNK         0.3460 
     85 H85        24.0765  -41.1388  -59.8383 H         1 UNK         0.3460 
     86 H86        26.4576  -44.8407  -58.1912 H         1 UNK         0.2989 
     87 H87        24.3328  -46.7448  -57.0780 H         1 UNK         0.0559 
     88 H88        22.9306  -47.5948  -58.9095 H         1 UNK         0.0848 
     89 H89        24.1536  -48.7891  -58.5114 H         1 UNK         0.0848 
     90 H90        24.3278  -47.7908  -59.9551 H         1 UNK         0.0848 
     91 H91        26.4643  -47.2021  -56.9316 H         1 UNK         0.3144 
     92 H92        28.9976  -48.2166  -59.2288 H         1 UNK         0.0727 
     93 H93        28.8756  -46.1652  -56.9480 H         1 UNK         0.0790 
     94 H94        29.4508  -45.8490  -58.5782 H         1 UNK         0.0790 
     95 H95        30.3228  -46.9708  -57.5446 H         1 UNK         0.0790 
     96 H96        28.6918  -48.6067  -56.4143 H         1 UNK         0.3215 
     97 H97        26.8393  -51.6683  -56.5894 H         1 UNK         0.0863 
     98 H98        28.7010  -52.3649  -55.0987 H         1 UNK         0.0808 
     99 H99        29.6984  -51.0308  -55.6808 H         1 UNK         0.0808 
    100 H100       29.2221  -52.3174  -56.7729 H         1 UNK         0.0808 
    101 H101       27.7957  -49.8482  -54.5111 H         1 UNK         0.3118 
    102 H102       24.7808  -48.0555  -54.2116 H         1 UNK         0.0546 
    103 H103       25.6774  -50.3188  -52.3442 H         1 UNK         0.0828 
    104 H104       24.0757  -50.1469  -53.0469 H         1 UNK         0.0828 
    105 H105       24.6538  -48.9522  -51.8992 H         1 UNK         0.0828 
    106 H106       27.1013  -48.3001  -52.5274 H         1 UNK         0.3005 
    107 H107       29.1149  -45.9405  -54.2411 H         1 UNK         0.1257 
    108 H108       27.4645  -45.6935  -51.6775 H         1 UNK         0.0775 
    109 H109       27.7889  -44.4518  -52.8573 H         1 UNK         0.0775 
    110 H110       29.5027  -42.5436  -52.1464 H         1 UNK         0.0840 
    111 H111       31.1455  -42.9470  -51.7125 H         1 UNK         0.0840 
    112 H112       29.6033  -47.4315  -51.8998 H         1 UNK         0.2987 
    113 H113       31.3747  -48.9214  -52.0556 H         1 UNK         0.0785 
    114 H114       29.2372  -50.1977  -51.6193 H         1 UNK         0.0798 
    115 H115       30.6031  -51.2913  -51.7325 H         1 UNK         0.0798 
    116 H116       29.4885  -51.1360  -53.0852 H         1 UNK         0.0798 
    117 H117       31.6722  -49.7343  -54.7650 H         1 UNK         0.3079 
    118 H118       34.2604  -51.8996  -54.5223 H         1 UNK         0.0794 
    119 H119       34.2065  -50.8334  -56.7649 H         1 UNK         0.0786 
    120 H120       33.2183  -49.5124  -56.1612 H         1 UNK         0.0786 
    121 H121       32.5770  -51.1564  -56.2114 H         1 UNK         0.0786 
    122 H122       35.1022  -49.0302  -54.5238 H         1 UNK         0.3032 
    123 H123       37.8907  -49.6439  -52.5650 H         1 UNK         0.1094 
    124 H124       38.0914  -49.0903  -55.5779 H         1 UNK         0.0794 
    125 H125       39.3060  -48.6744  -54.3668 H         1 UNK         0.0794 
    126 H126       38.9487  -50.3574  -54.7123 H         1 UNK         0.0794 
    127 H127       37.0591  -47.3734  -54.1335 H         1 UNK         0.3016 
@<TRIPOS>BOND
     1    1    2 1    
     2    1   67 1    
     3    1   68 1    
     4    1   69 1    
     5    2    3 2    
     6    2    4 am   BACKBONE|DICT|INTERRES
     7    4    5 1    
     8    4   70 1    
     9    5    6 1    
    10    5   65 1    
    11    5   71 1    
    12    6    7 1    
    13    6   72 1    
    14    6   73 1    
    15    7    8 1    
    16    8    9 1    
    17    8   74 1    
    18    8   75 1    
    19    9   10 ar   
    20    9   14 ar   
    21   10   11 ar   
    22   10   76 1    
    23   11   12 ar   
    24   11   48 1    
    25   12   13 ar   
    26   12   77 1    
    27   13   14 ar   
    28   13   15 1    
    29   14   78 1    
    30   15   16 1    
    31   15   79 1    
    32   15   80 1    
    33   16   17 1    
    34   17   18 1    
    35   17   81 1    
    36   17   82 1    
    37   18   19 1    
    38   18   22 1    
    39   18   83 1    
    40   19   20 am   BACKBONE|DICT|INTERRES
    41   19   21 2    
    42   20   84 1    
    43   20   85 1    
    44   22   23 am   BACKBONE|DICT|INTERRES
    45   22   86 1    
    46   23   24 2    
    47   23   25 1    
    48   25   26 1    
    49   25   27 1    
    50   25   87 1    
    51   26   88 1    
    52   26   89 1    
    53   26   90 1    
    54   27   28 am   BACKBONE|DICT|INTERRES
    55   27   91 1    
    56   28   29 2    
    57   28   30 1    
    58   30   31 1    
    59   30   32 1    
    60   30   92 1    
    61   31   93 1    
    62   31   94 1    
    63   31   95 1    
    64   32   33 am   BACKBONE|DICT|INTERRES
    65   32   96 1    
    66   33   34 2    
    67   33   35 1    
    68   35   36 1    
    69   35   37 1    
    70   35   97 1    
    71   36   98 1    
    72   36   99 1    
    73   36  100 1    
    74   37   38 am   BACKBONE|DICT|INTERRES
    75   37  101 1    
    76   38   39 2    
    77   38   40 1    
    78   40   41 1    
    79   40   42 1    
    80   40  102 1    
    81   41  103 1    
    82   41  104 1    
    83   41  105 1    
    84   42   43 am   BACKBONE|DICT|INTERRES
    85   42  106 1    
    86   43   44 2    
    87   43   45 1    
    88   45   46 1    
    89   45   49 1    
    90   45  107 1    
    91   46   47 1    
    92   46  108 1    
    93   46  109 1    
    94   47   48 1    
    95   48  110 1    
    96   48  111 1    
    97   49   50 am   BACKBONE|DICT|INTERRES
    98   49  112 1    
    99   50   51 2    
   100   50   52 1    
   101   52   53 1    
   102   52   54 1    
   103   52  113 1    
   104   53  114 1    
   105   53  115 1    
   106   53  116 1    
   107   54   55 am   BACKBONE|DICT|INTERRES
   108   54  117 1    
   109   55   56 2    
   110   55   57 1    
   111   57   58 1    
   112   57   59 1    
   113   57  118 1    
   114   58  119 1    
   115   58  120 1    
   116   58  121 1    
   117   59   60 am   BACKBONE|DICT|INTERRES
   118   59  122 1    
   119   60   61 2    
   120   60   62 1    
   121   62   63 1    
   122   62   64 1    
   123   62  123 1    
   124   63  124 1    
   125   63  125 1    
   126   63  126 1    
   127   64   65 am   BACKBONE|DICT|INTERRES
   128   64  127 1    
   129   65   66 2    
@<TRIPOS>SUBSTRUCTURE
     1 UNK         1 GROUP             0       ****    0 ROOT    
