@<TRIPOS>MOLECULE
3R134
127   129    1
SMALL
USER_CHARGES


@<TRIPOS>ATOM
      1 CA         35.0525  -45.1201  -56.9767 C.3       0 UNK        -0.1968 
      2 C          34.5591  -45.5748  -55.6120 C.2       0 UNK         0.4852 
      3 O          33.9938  -46.6617  -55.5002 O.2       0 UNK        -0.5359 
      4 N          34.7869  -44.7618  -54.5709 N.am      1 UNK        -0.4300 
      5 CA         34.3263  -44.9703  -53.1884 C.3       1 UNK         0.0863 
      6 C6         34.6876  -43.7700  -52.2740 C.3       11 UNK        -0.0953 
      7 S7         34.2129  -42.1416  -52.9534 S.3       11 UNK        -0.2369 
      8 C8         32.7962  -41.6756  -51.9104 C.3       11 UNK         0.0226 
      9 C9         31.5069  -42.3141  -52.4012 C.ar      11 UNK        -0.0699 
     10 C10        31.0677  -43.5279  -51.8651 C.ar      11 UNK        -0.0804 
     11 C11        29.8881  -44.1183  -52.3285 C.ar      11 UNK        -0.0871 
     12 C12        29.1268  -43.4681  -53.3025 C.ar      11 UNK        -0.1008 
     13 C13        29.5711  -42.2705  -53.8671 C.ar      11 UNK        -0.0735 
     14 C14        30.7575  -41.6927  -53.4055 C.ar      11 UNK        -0.0945 
     15 C15        28.7861  -41.6145  -54.9934 C.3       11 UNK         0.0169 
     16 S16        29.4493  -42.0788  -56.6271 S.3       11 UNK        -0.2669 
     17 C17        28.8126  -43.7787  -56.8384 C.3       11 UNK        -0.0850 
     18 CA         27.6277  -43.8366  -57.8372 C.3       10 UNK         0.0855 
     19 C          28.1211  -43.9387  -59.3065 C.2       10 UNK         0.5543 
     20 N          28.0964  -42.8431  -60.0528 N.am      10 UNK        -0.7343 
     21 O          28.5624  -44.9941  -59.7564 O.2       10 UNK        -0.5027 
     22 N          26.7025  -44.9232  -57.4920 N.am      10 UNK        -0.4495 
     23 C          25.4656  -45.0560  -57.9872 C.2       10 UNK         0.4903 
     24 O          24.9262  -44.2302  -58.7262 O.2       10 UNK        -0.4860 
     25 CA         24.7169  -46.3352  -57.5734 C.3       9 UNK         0.0227 
     26 CB         23.3362  -46.4875  -58.2466 C.3       9 UNK        -0.1964 
     27 N          25.5426  -47.5296  -57.7718 N.am      9 UNK        -0.4231 
     28 C          26.0222  -48.0231  -58.9246 C.2       9 UNK         0.5014 
     29 O          25.7729  -47.5589  -60.0378 O.2       9 UNK        -0.5270 
     30 CA         26.9475  -49.2514  -58.8196 C.3       8 UNK         0.0284 
     31 CB         28.4191  -48.8146  -58.9042 C.3       8 UNK        -0.1977 
     32 N          26.7501  -50.0261  -57.5910 N.am      8 UNK        -0.4342 
     33 C          25.6469  -50.7274  -57.2919 C.2       8 UNK         0.5039 
     34 O          24.6994  -50.8836  -58.0627 O.2       8 UNK        -0.5547 
     35 CA         25.5758  -51.3177  -55.8760 C.3       7 UNK         0.0281 
     36 CB         26.3194  -52.6610  -55.8077 C.3       7 UNK        -0.1963 
     37 N          26.1220  -50.3893  -54.8811 N.am      7 UNK        -0.4444 
     38 C          25.4704  -49.3127  -54.4166 C.2       7 UNK         0.5104 
     39 O          24.3215  -49.0152  -54.7418 O.2       7 UNK        -0.5100 
     40 CA         26.2318  -48.3980  -53.4414 C.3       6 UNK         0.0396 
     41 CB         26.0309  -48.8663  -51.9920 C.3       6 UNK        -0.1801 
     42 N          27.6637  -48.3233  -53.7333 N.am      6 UNK        -0.4747 
     43 C          28.1962  -47.6664  -54.7731 C.2       6 UNK         0.5012 
     44 O          27.5371  -47.0177  -55.5878 O.2       6 UNK        -0.5003 
     45 CA         29.7212  -47.7801  -54.9559 C.3       5 UNK         0.0782 
     46 C46        30.4762  -46.6314  -54.2471 C.3       11 UNK        -0.0868 
     47 S47        30.5757  -46.7980  -52.4233 S.3       11 UNK        -0.2515 
     48 C48        29.4607  -45.4870  -51.8228 C.3       11 UNK         0.0199 
     49 N          30.2740  -49.0851  -54.5883 N.am      5 UNK        -0.4607 
     50 C          29.9471  -50.2745  -55.1014 C.2       4 UNK         0.5031 
     51 O          29.0267  -50.4377  -55.9042 O.2       4 UNK        -0.5119 
     52 CA         30.8208  -51.4641  -54.6500 C.3       4 UNK         0.0263 
     53 CB         30.3567  -52.8031  -55.2511 C.3       4 UNK        -0.1967 
     54 N          32.2326  -51.2497  -54.9917 N.am      4 UNK        -0.4237 
     55 C          33.0664  -50.4204  -54.3477 C.2       3 UNK         0.4908 
     56 O          32.7443  -49.8087  -53.3258 O.2       3 UNK        -0.5102 
     57 CA         34.4602  -50.2206  -54.9709 C.3       3 UNK         0.0241 
     58 CB         34.3710  -49.8817  -56.4721 C.3       3 UNK        -0.1971 
     59 N          35.1794  -49.1405  -54.2915 N.am      3 UNK        -0.4139 
     60 C          35.9657  -49.3032  -53.2179 C.2       2 UNK         0.5016 
     61 O          36.2262  -50.4029  -52.7260 O.2       2 UNK        -0.5319 
     62 CA         36.5973  -48.0456  -52.5890 C.3       2 UNK         0.0286 
     63 CB         38.1030  -47.9897  -52.8987 C.3       2 UNK        -0.1963 
     64 N          35.9812  -46.7929  -53.0331 N.am      2 UNK        -0.4790 
     65 C          34.8423  -46.2796  -52.5446 C.2       1 UNK         0.5024 
     66 O          34.2164  -46.7846  -51.6129 O.2       1 UNK        -0.4888 
     67 H67        35.5525  -44.1530  -56.9293 H         1 UNK         0.0892 
     68 H68        35.7553  -45.8473  -57.3823 H         1 UNK         0.0892 
     69 H69        34.2136  -45.0352  -57.6669 H         1 UNK         0.0892 
     70 H70        35.2508  -43.8783  -54.7299 H         1 UNK         0.3107 
     71 H71        33.2380  -45.0498  -53.2307 H         1 UNK         0.0773 
     72 H72        34.2342  -43.8952  -51.2892 H         1 UNK         0.0680 
     73 H73        35.7655  -43.7393  -52.1020 H         1 UNK         0.0680 
     74 H74        32.6937  -40.5896  -51.9310 H         1 UNK         0.0650 
     75 H75        32.9896  -41.9387  -50.8694 H         1 UNK         0.0650 
     76 H76        31.6572  -44.0304  -51.1104 H         1 UNK         0.1397 
     77 H77        28.2089  -43.9202  -53.6519 H         1 UNK         0.1363 
     78 H78        31.1069  -40.7662  -53.8406 H         1 UNK         0.1355 
     79 H79        27.7285  -41.8776  -54.9358 H         1 UNK         0.0707 
     80 H80        28.8359  -40.5296  -54.8889 H         1 UNK         0.0707 
     81 H81        29.6306  -44.4342  -57.1446 H         1 UNK         0.1034 
     82 H82        28.4968  -44.1569  -55.8687 H         1 UNK         0.1034 
     83 H83        27.0526  -42.9137  -57.7324 H         1 UNK         0.0482 
     84 H84        28.4271  -42.8886  -61.0038 H         1 UNK         0.3460 
     85 H85        27.7558  -41.9703  -59.6806 H         1 UNK         0.3460 
     86 H86        27.0663  -45.6644  -56.9003 H         1 UNK         0.2989 
     87 H87        24.5500  -46.2592  -56.4978 H         1 UNK         0.0559 
     88 H88        22.6857  -45.6498  -57.9929 H         1 UNK         0.0848 
     89 H89        22.8350  -47.3983  -57.9188 H         1 UNK         0.0848 
     90 H90        23.4129  -46.5192  -59.3338 H         1 UNK         0.0848 
     91 H91        25.8682  -47.9681  -56.9208 H         1 UNK         0.3144 
     92 H92        26.7304  -49.9039  -59.6678 H         1 UNK         0.0727 
     93 H93        28.6852  -48.1426  -58.0881 H         1 UNK         0.0790 
     94 H94        28.6148  -48.2831  -59.8367 H         1 UNK         0.0790 
     95 H95        29.0929  -49.6709  -58.8689 H         1 UNK         0.0790 
     96 H96        27.5215  -50.0364  -56.9257 H         1 UNK         0.3215 
     97 H97        24.5251  -51.5008  -55.6391 H         1 UNK         0.0863 
     98 H98        26.2981  -53.0797  -54.8015 H         1 UNK         0.0808 
     99 H99        27.3610  -52.5636  -56.1128 H         1 UNK         0.0808 
    100 H100       25.8571  -53.3915  -56.4728 H         1 UNK         0.0808 
    101 H101       27.0859  -50.5260  -54.6100 H         1 UNK         0.3118 
    102 H102       25.8129  -47.3934  -53.5331 H         1 UNK         0.0546 
    103 H103       26.4417  -49.8630  -51.8262 H         1 UNK         0.0828 
    104 H104       24.9704  -48.9051  -51.7389 H         1 UNK         0.0828 
    105 H105       26.5058  -48.1850  -51.2858 H         1 UNK         0.0828 
    106 H106       28.2913  -48.8120  -53.1103 H         1 UNK         0.3005 
    107 H107       29.8992  -47.6689  -56.0274 H         1 UNK         0.1257 
    108 H108       30.0591  -45.6675  -54.5339 H         1 UNK         0.0775 
    109 H109       31.5030  -46.6085  -54.6128 H         1 UNK         0.0775 
    110 H110       28.4388  -45.7184  -52.1280 H         1 UNK         0.0840 
    111 H111       29.4634  -45.4887  -50.7320 H         1 UNK         0.0840 
    112 H112       31.0557  -49.0615  -53.9382 H         1 UNK         0.2987 
    113 H113       30.7313  -51.5396  -53.5641 H         1 UNK         0.0785 
    114 H114       29.3429  -53.0410  -54.9292 H         1 UNK         0.0798 
    115 H115       30.9943  -53.6262  -54.9279 H         1 UNK         0.0798 
    116 H116       30.3603  -52.7828  -56.3417 H         1 UNK         0.0798 
    117 H117       32.5580  -51.6978  -55.8362 H         1 UNK         0.3079 
    118 H118       35.0141  -51.1552  -54.8607 H         1 UNK         0.0794 
    119 H119       35.3488  -49.6203  -56.8775 H         1 UNK         0.0786 
    120 H120       33.6998  -49.0422  -56.6584 H         1 UNK         0.0786 
    121 H121       34.0048  -50.7282  -57.0534 H         1 UNK         0.0786 
    122 H122       34.9392  -48.1987  -54.5858 H         1 UNK         0.3032 
    123 H123       36.4747  -48.1333  -51.5069 H         1 UNK         0.1094 
    124 H124       38.2928  -47.9055  -53.9695 H         1 UNK         0.0794 
    125 H125       38.5792  -47.1428  -52.4041 H         1 UNK         0.0794 
    126 H126       38.6078  -48.8914  -52.5487 H         1 UNK         0.0794 
    127 H127       36.4324  -46.3067  -53.7948 H         1 UNK         0.3016 
@<TRIPOS>BOND
     1    1    2 1    
     2    1   67 1    
     3    1   68 1    
     4    1   69 1    
     5    2    3 2    
     6    2    4 am   BACKBONE|DICT|INTERRES
     7    4    5 1    
     8    4   70 1    
     9    5    6 1    
    10    5   65 1    
    11    5   71 1    
    12    6    7 1    
    13    6   72 1    
    14    6   73 1    
    15    7    8 1    
    16    8    9 1    
    17    8   74 1    
    18    8   75 1    
    19    9   10 ar   
    20    9   14 ar   
    21   10   11 ar   
    22   10   76 1    
    23   11   12 ar   
    24   11   48 1    
    25   12   13 ar   
    26   12   77 1    
    27   13   14 ar   
    28   13   15 1    
    29   14   78 1    
    30   15   16 1    
    31   15   79 1    
    32   15   80 1    
    33   16   17 1    
    34   17   18 1    
    35   17   81 1    
    36   17   82 1    
    37   18   19 1    
    38   18   22 1    
    39   18   83 1    
    40   19   20 am   BACKBONE|DICT|INTERRES
    41   19   21 2    
    42   20   84 1    
    43   20   85 1    
    44   22   23 am   BACKBONE|DICT|INTERRES
    45   22   86 1    
    46   23   24 2    
    47   23   25 1    
    48   25   26 1    
    49   25   27 1    
    50   25   87 1    
    51   26   88 1    
    52   26   89 1    
    53   26   90 1    
    54   27   28 am   BACKBONE|DICT|INTERRES
    55   27   91 1    
    56   28   29 2    
    57   28   30 1    
    58   30   31 1    
    59   30   32 1    
    60   30   92 1    
    61   31   93 1    
    62   31   94 1    
    63   31   95 1    
    64   32   33 am   BACKBONE|DICT|INTERRES
    65   32   96 1    
    66   33   34 2    
    67   33   35 1    
    68   35   36 1    
    69   35   37 1    
    70   35   97 1    
    71   36   98 1    
    72   36   99 1    
    73   36  100 1    
    74   37   38 am   BACKBONE|DICT|INTERRES
    75   37  101 1    
    76   38   39 2    
    77   38   40 1    
    78   40   41 1    
    79   40   42 1    
    80   40  102 1    
    81   41  103 1    
    82   41  104 1    
    83   41  105 1    
    84   42   43 am   BACKBONE|DICT|INTERRES
    85   42  106 1    
    86   43   44 2    
    87   43   45 1    
    88   45   46 1    
    89   45   49 1    
    90   45  107 1    
    91   46   47 1    
    92   46  108 1    
    93   46  109 1    
    94   47   48 1    
    95   48  110 1    
    96   48  111 1    
    97   49   50 am   BACKBONE|DICT|INTERRES
    98   49  112 1    
    99   50   51 2    
   100   50   52 1    
   101   52   53 1    
   102   52   54 1    
   103   52  113 1    
   104   53  114 1    
   105   53  115 1    
   106   53  116 1    
   107   54   55 am   BACKBONE|DICT|INTERRES
   108   54  117 1    
   109   55   56 2    
   110   55   57 1    
   111   57   58 1    
   112   57   59 1    
   113   57  118 1    
   114   58  119 1    
   115   58  120 1    
   116   58  121 1    
   117   59   60 am   BACKBONE|DICT|INTERRES
   118   59  122 1    
   119   60   61 2    
   120   60   62 1    
   121   62   63 1    
   122   62   64 1    
   123   62  123 1    
   124   63  124 1    
   125   63  125 1    
   126   63  126 1    
   127   64   65 am   BACKBONE|DICT|INTERRES
   128   64  127 1    
   129   65   66 2    
@<TRIPOS>SUBSTRUCTURE
     1 UNK         1 GROUP             0       ****    0 ROOT    
