@<TRIPOS>MOLECULE
3R134
127   129    1
SMALL
USER_CHARGES


@<TRIPOS>ATOM
      1 CA         37.5249  -43.7507  -54.2752 C.3       0 UNK        -0.1968 
      2 C          36.3512  -44.7062  -54.1219 C.2       0 UNK         0.4852 
      3 O          35.4820  -44.4712  -53.2814 O.2       0 UNK        -0.5359 
      4 N          36.3298  -45.7856  -54.9176 N.am      1 UNK        -0.4300 
      5 CA         35.2999  -46.8368  -55.0141 C.3       1 UNK         0.0863 
      6 C6         33.8892  -46.3131  -55.3899 C.3       11 UNK        -0.0953 
      7 S7         33.8609  -45.3626  -56.9516 S.3       11 UNK        -0.2369 
      8 C8         33.4462  -43.6764  -56.3905 C.3       11 UNK         0.0226 
      9 C9         32.0373  -43.6060  -55.8214 C.ar      11 UNK        -0.0699 
     10 C10        31.8372  -43.6649  -54.4409 C.ar      11 UNK        -0.0804 
     11 C11        30.5458  -43.7171  -53.9151 C.ar      11 UNK        -0.0871 
     12 C12        29.4465  -43.6381  -54.7735 C.ar      11 UNK        -0.1008 
     13 C13        29.6315  -43.5621  -56.1571 C.ar      11 UNK        -0.0735 
     14 C14        30.9319  -43.5395  -56.6740 C.ar      11 UNK        -0.0945 
     15 C15        28.4434  -43.6265  -57.1066 C.3       11 UNK         0.0169 
     16 S16        27.2973  -42.2159  -56.9671 S.3       11 UNK        -0.2669 
     17 C17        25.8580  -42.7077  -55.9329 C.3       11 UNK        -0.0850 
     18 CA         25.6569  -44.1904  -55.4834 C.3       10 UNK         0.0855 
     19 C          24.4976  -44.3420  -54.4502 C.2       10 UNK         0.5543 
     20 N          23.7340  -45.4283  -54.4615 N.am      10 UNK        -0.7343 
     21 O          24.3049  -43.4776  -53.5987 O.2       10 UNK        -0.5027 
     22 N          25.6074  -45.1756  -56.5766 N.am      10 UNK        -0.4495 
     23 C          24.7644  -45.2182  -57.6139 C.2       10 UNK         0.4903 
     24 O          23.9083  -44.3622  -57.8404 O.2       10 UNK        -0.4860 
     25 CA         24.8653  -46.4630  -58.5196 C.3       9 UNK         0.0227 
     26 CB         24.2697  -46.2389  -59.9265 C.3       9 UNK        -0.1964 
     27 N          26.2133  -47.0477  -58.5880 N.am      9 UNK        -0.4231 
     28 C          27.3070  -46.5322  -59.1745 C.2       9 UNK         0.5014 
     29 O          27.3201  -45.4437  -59.7500 O.2       9 UNK        -0.5270 
     30 CA         28.6149  -47.3563  -59.1313 C.3       8 UNK         0.0284 
     31 CB         29.7719  -46.5569  -58.5073 C.3       8 UNK        -0.1977 
     32 N          28.4987  -48.6279  -58.4168 N.am      8 UNK        -0.4342 
     33 C          27.9306  -49.7423  -58.8934 C.2       8 UNK         0.5039 
     34 O          27.4823  -49.8522  -60.0347 O.2       8 UNK        -0.5547 
     35 CA         27.7945  -50.9145  -57.9067 C.3       7 UNK         0.0281 
     36 CB         29.0626  -51.7838  -57.9117 C.3       7 UNK        -0.1963 
     37 N          27.5061  -50.4683  -56.5391 N.am      7 UNK        -0.4444 
     38 C          26.3741  -49.8582  -56.1585 C.2       7 UNK         0.5104 
     39 O          25.4363  -49.6164  -56.9181 O.2       7 UNK        -0.5100 
     40 CA         26.2959  -49.3972  -54.6934 C.3       6 UNK         0.0396 
     41 CB         25.9075  -50.5662  -53.7750 C.3       6 UNK        -0.1801 
     42 N          27.5425  -48.7904  -54.2195 N.am      6 UNK        -0.4747 
     43 C          28.0487  -47.6382  -54.6850 C.2       6 UNK         0.5012 
     44 O          27.5158  -46.9659  -55.5669 O.2       6 UNK        -0.5003 
     45 CA         29.3980  -47.1840  -54.0913 C.3       5 UNK         0.0782 
     46 C46        29.1460  -46.4957  -52.7241 C.3       11 UNK        -0.0868 
     47 S47        30.6252  -45.7017  -52.0140 S.3       11 UNK        -0.2515 
     48 C48        30.3514  -43.9462  -52.4267 C.3       11 UNK         0.0199 
     49 N          30.3766  -48.2819  -54.0149 N.am      5 UNK        -0.4607 
     50 C          30.7373  -49.0659  -55.0442 C.2       4 UNK         0.5031 
     51 O          30.2967  -48.9181  -56.1841 O.2       4 UNK        -0.5119 
     52 CA         31.7149  -50.2298  -54.7894 C.3       4 UNK         0.0263 
     53 CB         32.7758  -50.3306  -55.9008 C.3       4 UNK        -0.1967 
     54 N          32.3768  -50.2098  -53.4807 N.am      4 UNK        -0.4237 
     55 C          31.8177  -50.6362  -52.3376 C.2       3 UNK         0.4908 
     56 O          30.6409  -50.9893  -52.2545 O.2       3 UNK        -0.5102 
     57 CA         32.7020  -50.7024  -51.0776 C.3       3 UNK         0.0241 
     58 CB         33.0893  -52.1593  -50.7743 C.3       3 UNK        -0.1971 
     59 N          33.9220  -49.8979  -51.1730 N.am      3 UNK        -0.4139 
     60 C          33.9635  -48.5659  -51.0445 C.2       2 UNK         0.5016 
     61 O          32.9785  -47.8774  -50.7826 O.2       2 UNK        -0.5319 
     62 CA         35.3224  -47.8749  -51.2625 C.3       2 UNK         0.0286 
     63 CB         36.5425  -48.8048  -51.0693 C.3       2 UNK        -0.1963 
     64 N          35.3788  -47.2091  -52.5684 N.am      2 UNK        -0.4790 
     65 C          35.2228  -47.7634  -53.7788 C.2       1 UNK         0.5024 
     66 O          35.0280  -48.9678  -53.9491 O.2       1 UNK        -0.4888 
     67 H67        38.2187  -44.0755  -55.0503 H         1 UNK         0.0892 
     68 H68        38.0739  -43.6775  -53.3368 H         1 UNK         0.0892 
     69 H69        37.1648  -42.7564  -54.5381 H         1 UNK         0.0892 
     70 H70        37.1023  -45.9139  -55.5565 H         1 UNK         0.3107 
     71 H71        35.6302  -47.4753  -55.8353 H         1 UNK         0.0773 
     72 H72        33.4852  -45.7203  -54.5728 H         1 UNK         0.0680 
     73 H73        33.1928  -47.1432  -55.5138 H         1 UNK         0.0680 
     74 H74        34.1778  -43.3449  -55.6530 H         1 UNK         0.0650 
     75 H75        33.5327  -42.9923  -57.2358 H         1 UNK         0.0650 
     76 H76        32.6876  -43.7349  -53.7754 H         1 UNK         0.1397 
     77 H77        28.4505  -43.6809  -54.3631 H         1 UNK         0.1363 
     78 H78        31.0888  -43.5177  -57.7437 H         1 UNK         0.1355 
     79 H79        27.9526  -44.5817  -56.9701 H         1 UNK         0.0707 
     80 H80        28.7968  -43.6354  -58.1383 H         1 UNK         0.0707 
     81 H81        24.9620  -42.3663  -56.4532 H         1 UNK         0.1034 
     82 H82        25.9212  -42.0734  -55.0470 H         1 UNK         0.1034 
     83 H83        26.5357  -44.4746  -54.9109 H         1 UNK         0.0482 
     84 H84        23.8869  -46.1508  -55.1455 H         1 UNK         0.3460 
     85 H85        22.9953  -45.5203  -53.7822 H         1 UNK         0.3460 
     86 H86        26.2611  -45.9463  -56.4560 H         1 UNK         0.2989 
     87 H87        24.2509  -47.2224  -58.0340 H         1 UNK         0.0559 
     88 H88        24.3457  -47.1378  -60.5383 H         1 UNK         0.0848 
     89 H89        24.7705  -45.4278  -60.4555 H         1 UNK         0.0848 
     90 H90        23.2123  -45.9787  -59.8661 H         1 UNK         0.0848 
     91 H91        26.3103  -47.9452  -58.1284 H         1 UNK         0.3144 
     92 H92        28.8811  -47.5718  -60.1680 H         1 UNK         0.0727 
     93 H93        30.7094  -47.1109  -58.5606 H         1 UNK         0.0790 
     94 H94        29.5848  -46.3320  -57.4572 H         1 UNK         0.0790 
     95 H95        29.9287  -45.6125  -59.0289 H         1 UNK         0.0790 
     96 H96        28.9141  -48.6607  -57.4880 H         1 UNK         0.3215 
     97 H97        26.9567  -51.5307  -58.2406 H         1 UNK         0.0863 
     98 H98        28.9527  -52.6518  -57.2615 H         1 UNK         0.0808 
     99 H99        29.9397  -51.2257  -57.5833 H         1 UNK         0.0808 
    100 H100       29.2730  -52.1567  -58.9150 H         1 UNK         0.0808 
    101 H101       28.2412  -50.5800  -55.8568 H         1 UNK         0.3118 
    102 H102       25.5111  -48.6404  -54.6268 H         1 UNK         0.0546 
    103 H103       24.9734  -51.0251  -54.1023 H         1 UNK         0.0828 
    104 H104       25.7582  -50.2310  -52.7485 H         1 UNK         0.0828 
    105 H105       26.6685  -51.3475  -53.7657 H         1 UNK         0.0828 
    106 H106       28.0551  -49.2881  -53.5047 H         1 UNK         0.3005 
    107 H107       29.8115  -46.4464  -54.7822 H         1 UNK         0.1257 
    108 H108       28.7823  -47.2230  -51.9958 H         1 UNK         0.0775 
    109 H109       28.3585  -45.7440  -52.8084 H         1 UNK         0.0775 
    110 H110       29.3567  -43.6345  -52.1044 H         1 UNK         0.0840 
    111 H111       31.0605  -43.3348  -51.8665 H         1 UNK         0.0840 
    112 H112       30.7874  -48.4525  -53.1084 H         1 UNK         0.2987 
    113 H113       31.1141  -51.1401  -54.8437 H         1 UNK         0.0785 
    114 H114       33.3752  -49.4247  -55.9766 H         1 UNK         0.0798 
    115 H115       32.3119  -50.4901  -56.8750 H         1 UNK         0.0798 
    116 H116       33.4535  -51.1668  -55.7291 H         1 UNK         0.0798 
    117 H117       33.3432  -49.8961  -53.4725 H         1 UNK         0.3079 
    118 H118       32.1049  -50.3292  -50.2425 H         1 UNK         0.0794 
    119 H119       33.6934  -52.5921  -51.5729 H         1 UNK         0.0786 
    120 H120       32.2022  -52.7845  -50.6617 H         1 UNK         0.0786 
    121 H121       33.6553  -52.2347  -49.8455 H         1 UNK         0.0786 
    122 H122       34.7746  -50.3822  -51.4153 H         1 UNK         0.3032 
    123 H123       35.3857  -47.0887  -50.5080 H         1 UNK         0.1094 
    124 H124       36.6044  -49.5829  -51.8306 H         1 UNK         0.0794 
    125 H125       37.4718  -48.2364  -51.1104 H         1 UNK         0.0794 
    126 H126       36.5130  -49.2945  -50.0949 H         1 UNK         0.0794 
    127 H127       35.4584  -46.1939  -52.5512 H         1 UNK         0.3016 
@<TRIPOS>BOND
     1    1    2 1    
     2    1   67 1    
     3    1   68 1    
     4    1   69 1    
     5    2    3 2    
     6    2    4 am   BACKBONE|DICT|INTERRES
     7    4    5 1    
     8    4   70 1    
     9    5    6 1    
    10    5   65 1    
    11    5   71 1    
    12    6    7 1    
    13    6   72 1    
    14    6   73 1    
    15    7    8 1    
    16    8    9 1    
    17    8   74 1    
    18    8   75 1    
    19    9   10 ar   
    20    9   14 ar   
    21   10   11 ar   
    22   10   76 1    
    23   11   12 ar   
    24   11   48 1    
    25   12   13 ar   
    26   12   77 1    
    27   13   14 ar   
    28   13   15 1    
    29   14   78 1    
    30   15   16 1    
    31   15   79 1    
    32   15   80 1    
    33   16   17 1    
    34   17   18 1    
    35   17   81 1    
    36   17   82 1    
    37   18   19 1    
    38   18   22 1    
    39   18   83 1    
    40   19   20 am   BACKBONE|DICT|INTERRES
    41   19   21 2    
    42   20   84 1    
    43   20   85 1    
    44   22   23 am   BACKBONE|DICT|INTERRES
    45   22   86 1    
    46   23   24 2    
    47   23   25 1    
    48   25   26 1    
    49   25   27 1    
    50   25   87 1    
    51   26   88 1    
    52   26   89 1    
    53   26   90 1    
    54   27   28 am   BACKBONE|DICT|INTERRES
    55   27   91 1    
    56   28   29 2    
    57   28   30 1    
    58   30   31 1    
    59   30   32 1    
    60   30   92 1    
    61   31   93 1    
    62   31   94 1    
    63   31   95 1    
    64   32   33 am   BACKBONE|DICT|INTERRES
    65   32   96 1    
    66   33   34 2    
    67   33   35 1    
    68   35   36 1    
    69   35   37 1    
    70   35   97 1    
    71   36   98 1    
    72   36   99 1    
    73   36  100 1    
    74   37   38 am   BACKBONE|DICT|INTERRES
    75   37  101 1    
    76   38   39 2    
    77   38   40 1    
    78   40   41 1    
    79   40   42 1    
    80   40  102 1    
    81   41  103 1    
    82   41  104 1    
    83   41  105 1    
    84   42   43 am   BACKBONE|DICT|INTERRES
    85   42  106 1    
    86   43   44 2    
    87   43   45 1    
    88   45   46 1    
    89   45   49 1    
    90   45  107 1    
    91   46   47 1    
    92   46  108 1    
    93   46  109 1    
    94   47   48 1    
    95   48  110 1    
    96   48  111 1    
    97   49   50 am   BACKBONE|DICT|INTERRES
    98   49  112 1    
    99   50   51 2    
   100   50   52 1    
   101   52   53 1    
   102   52   54 1    
   103   52  113 1    
   104   53  114 1    
   105   53  115 1    
   106   53  116 1    
   107   54   55 am   BACKBONE|DICT|INTERRES
   108   54  117 1    
   109   55   56 2    
   110   55   57 1    
   111   57   58 1    
   112   57   59 1    
   113   57  118 1    
   114   58  119 1    
   115   58  120 1    
   116   58  121 1    
   117   59   60 am   BACKBONE|DICT|INTERRES
   118   59  122 1    
   119   60   61 2    
   120   60   62 1    
   121   62   63 1    
   122   62   64 1    
   123   62  123 1    
   124   63  124 1    
   125   63  125 1    
   126   63  126 1    
   127   64   65 am   BACKBONE|DICT|INTERRES
   128   64  127 1    
   129   65   66 2    
@<TRIPOS>SUBSTRUCTURE
     1 UNK         1 GROUP             0       ****    0 ROOT    
