@<TRIPOS>MOLECULE
3R134
127   129    1
SMALL
USER_CHARGES


@<TRIPOS>ATOM
      1 CA         38.0206  -45.9143  -52.5016 C.3       0 UNK        -0.1968 
      2 C          36.6030  -45.7030  -53.0136 C.2       0 UNK         0.4852 
      3 O          36.1743  -46.4085  -53.9270 O.2       0 UNK        -0.5359 
      4 N          35.8831  -44.7319  -52.4386 N.am      1 UNK        -0.4300 
      5 CA         34.4836  -44.4251  -52.7488 C.3       1 UNK         0.0863 
      6 C6         34.1008  -43.0047  -52.2603 C.3       11 UNK        -0.0953 
      7 S7         34.7073  -41.7450  -53.4299 S.3       11 UNK        -0.2369 
      8 C8         33.1557  -41.1030  -54.1487 C.3       11 UNK         0.0226 
      9 C9         32.2005  -42.1948  -54.6237 C.ar      11 UNK        -0.0699 
     10 C10        32.6073  -43.1375  -55.5743 C.ar      11 UNK        -0.0804 
     11 C11        31.7286  -44.1392  -55.9962 C.ar      11 UNK        -0.0871 
     12 C12        30.4341  -44.1852  -55.4762 C.ar      11 UNK        -0.1008 
     13 C13        30.0008  -43.2288  -54.5563 C.ar      11 UNK        -0.0735 
     14 C14        30.8940  -42.2442  -54.1230 C.ar      11 UNK        -0.0945 
     15 C15        28.5468  -43.2039  -54.1048 C.3       11 UNK         0.0169 
     16 S16        27.9419  -44.8223  -53.5259 S.3       11 UNK        -0.2669 
     17 C17        26.1382  -44.5820  -53.6981 C.3       11 UNK        -0.0850 
     18 CA         25.4643  -45.5685  -54.7008 C.3       10 UNK         0.0855 
     19 C          23.9116  -45.4260  -54.7224 C.2       10 UNK         0.5543 
     20 N          23.2426  -45.6403  -55.8490 N.am      10 UNK        -0.7343 
     21 O          23.2963  -45.1442  -53.6967 O.2       10 UNK        -0.5027 
     22 N          26.0894  -45.6099  -56.0413 N.am      10 UNK        -0.4495 
     23 C          26.2093  -44.5790  -56.8879 C.2       10 UNK         0.4903 
     24 O          25.8218  -43.4394  -56.6289 O.2       10 UNK        -0.4860 
     25 CA         26.8510  -44.8349  -58.2638 C.3       9 UNK         0.0227 
     26 CB         28.1998  -44.1074  -58.3921 C.3       9 UNK        -0.1964 
     27 N          27.0521  -46.2502  -58.6039 N.am      9 UNK        -0.4231 
     28 C          26.2833  -46.9195  -59.4762 C.2       9 UNK         0.5014 
     29 O          25.2115  -46.4970  -59.9118 O.2       9 UNK        -0.5270 
     30 CA         26.8115  -48.2703  -59.9817 C.3       8 UNK         0.0284 
     31 CB         28.1229  -48.0953  -60.7694 C.3       8 UNK        -0.1977 
     32 N          27.0250  -49.1967  -58.8746 N.am      8 UNK        -0.4342 
     33 C          26.1818  -50.1786  -58.5235 C.2       8 UNK         0.5039 
     34 O          25.1572  -50.4603  -59.1466 O.2       8 UNK        -0.5547 
     35 CA         26.5293  -50.9896  -57.2580 C.3       7 UNK         0.0281 
     36 CB         27.2043  -52.3174  -57.6381 C.3       7 UNK        -0.1963 
     37 N          27.3910  -50.2688  -56.3179 N.am      7 UNK        -0.4444 
     38 C          27.0582  -49.1268  -55.6998 C.2       7 UNK         0.5104 
     39 O          25.9473  -48.6076  -55.7833 O.2       7 UNK        -0.5100 
     40 CA         28.1689  -48.3992  -54.9233 C.3       6 UNK         0.0396 
     41 CB         28.0417  -48.6887  -53.4216 C.3       6 UNK        -0.1801 
     42 N          29.5160  -48.7259  -55.4055 N.am      6 UNK        -0.4747 
     43 C          29.9776  -48.4179  -56.6306 C.2       6 UNK         0.5012 
     44 O          29.3228  -47.7638  -57.4478 O.2       6 UNK        -0.5003 
     45 CA         31.3488  -48.9953  -57.0473 C.3       5 UNK         0.0782 
     46 C46        32.3799  -47.9258  -57.4905 C.3       11 UNK        -0.0868 
     47 S47        32.7810  -46.6671  -56.2327 S.3       11 UNK        -0.2515 
     48 C48        32.1529  -45.1630  -57.0323 C.3       11 UNK         0.0199 
     49 N          31.8941  -49.9288  -56.0510 N.am      5 UNK        -0.4607 
     50 C          31.6186  -51.2423  -56.0443 C.2       4 UNK         0.5031 
     51 O          30.8512  -51.7770  -56.8450 O.2       4 UNK        -0.5119 
     52 CA         32.2909  -52.1120  -54.9677 C.3       4 UNK         0.0263 
     53 CB         33.6890  -52.5530  -55.4293 C.3       4 UNK        -0.1967 
     54 N          32.3923  -51.4571  -53.6633 N.am      4 UNK        -0.4237 
     55 C          31.3488  -51.1185  -52.8947 C.2       3 UNK         0.4908 
     56 O          30.1776  -51.3418  -53.1993 O.2       3 UNK        -0.5102 
     57 CA         31.6495  -50.3774  -51.5771 C.3       3 UNK         0.0241 
     58 CB         33.0902  -50.5842  -51.0550 C.3       3 UNK        -0.1971 
     59 N          31.3386  -48.9459  -51.6783 N.am      3 UNK        -0.4139 
     60 C          31.8285  -48.0815  -52.5805 C.2       2 UNK         0.5016 
     61 O          32.6239  -48.4053  -53.4646 O.2       2 UNK        -0.5319 
     62 CA         31.3236  -46.6241  -52.5211 C.3       2 UNK         0.0286 
     63 CB         30.6106  -46.2421  -51.2033 C.3       2 UNK        -0.1963 
     64 N          32.3876  -45.6643  -52.8277 N.am      2 UNK        -0.4790 
     65 C          33.5338  -45.4822  -52.1564 C.2       1 UNK         0.5024 
     66 O          33.8307  -46.0624  -51.1081 O.2       1 UNK        -0.4888 
     67 H67        38.1312  -46.9257  -52.1115 H         1 UNK         0.0892 
     68 H68        38.7362  -45.7813  -53.3126 H         1 UNK         0.0892 
     69 H69        38.2765  -45.2145  -51.7062 H         1 UNK         0.0892 
     70 H70        36.2861  -44.2002  -51.6809 H         1 UNK         0.3107 
     71 H71        34.3688  -44.4734  -53.8339 H         1 UNK         0.0773 
     72 H72        33.0214  -42.8905  -52.1455 H         1 UNK         0.0680 
     73 H73        34.5184  -42.8037  -51.2722 H         1 UNK         0.0680 
     74 H74        33.4007  -40.4555  -54.9914 H         1 UNK         0.0650 
     75 H75        32.6732  -40.4673  -53.4047 H         1 UNK         0.0650 
     76 H76        33.6105  -43.0949  -55.9768 H         1 UNK         0.1397 
     77 H77        29.7524  -44.9590  -55.8005 H         1 UNK         0.1363 
     78 H78        30.5636  -41.4992  -53.4121 H         1 UNK         0.1355 
     79 H79        28.3963  -42.4718  -53.3101 H         1 UNK         0.0707 
     80 H80        27.9468  -42.8710  -54.9522 H         1 UNK         0.0707 
     81 H81        25.9176  -43.5501  -53.9746 H         1 UNK         0.1034 
     82 H82        25.7081  -44.7115  -52.7034 H         1 UNK         0.1034 
     83 H83        25.6244  -46.5617  -54.2847 H         1 UNK         0.0482 
     84 H84        22.2384  -45.5565  -55.8528 H         1 UNK         0.3460 
     85 H85        23.7341  -45.8906  -56.6920 H         1 UNK         0.3460 
     86 H86        26.3545  -46.5332  -56.3559 H         1 UNK         0.2989 
     87 H87        26.1782  -44.3725  -58.9892 H         1 UNK         0.0559 
     88 H88        28.1475  -43.0855  -58.0131 H         1 UNK         0.0848 
     89 H89        28.5119  -44.0471  -59.4348 H         1 UNK         0.0848 
     90 H90        28.9870  -44.6222  -57.8475 H         1 UNK         0.0848 
     91 H91        27.9072  -46.6852  -58.2670 H         1 UNK         0.3144 
     92 H92        26.0695  -48.6768  -60.6726 H         1 UNK         0.0727 
     93 H93        28.4501  -49.0412  -61.2013 H         1 UNK         0.0790 
     94 H94        28.9345  -47.7172  -60.1471 H         1 UNK         0.0790 
     95 H95        27.9907  -47.3933  -61.5939 H         1 UNK         0.0790 
     96 H96        27.8279  -49.0141  -58.2860 H         1 UNK         0.3215 
     97 H97        25.5904  -51.2122  -56.7463 H         1 UNK         0.0863 
     98 H98        27.3795  -52.9401  -56.7606 H         1 UNK         0.0808 
     99 H99        28.1638  -52.1562  -58.1317 H         1 UNK         0.0808 
    100 H100       26.5781  -52.8924  -58.3218 H         1 UNK         0.0808 
    101 H101       28.3242  -50.6324  -56.1829 H         1 UNK         0.3118 
    102 H102       28.0288  -47.3287  -55.0723 H         1 UNK         0.0546 
    103 H103       27.0642  -48.3775  -53.0505 H         1 UNK         0.0828 
    104 H104       28.7848  -48.1446  -52.8451 H         1 UNK         0.0828 
    105 H105       28.1454  -49.7504  -53.2003 H         1 UNK         0.0828 
    106 H106       30.0954  -49.2979  -54.8061 H         1 UNK         0.3005 
    107 H107       31.1324  -49.5676  -57.9528 H         1 UNK         0.1257 
    108 H108       33.3122  -48.4173  -57.7727 H         1 UNK         0.0775 
    109 H109       32.0326  -47.4383  -58.4030 H         1 UNK         0.0775 
    110 H110       32.9209  -44.7539  -57.6904 H         1 UNK         0.0840 
    111 H111       31.2991  -45.4027  -57.6676 H         1 UNK         0.0840 
    112 H112       32.4769  -49.5249  -55.3242 H         1 UNK         0.2987 
    113 H113       31.6777  -53.0070  -54.8414 H         1 UNK         0.0785 
    114 H114       34.1418  -53.2451  -54.7191 H         1 UNK         0.0798 
    115 H115       34.3629  -51.7035  -55.5482 H         1 UNK         0.0798 
    116 H116       33.6383  -53.0658  -56.3910 H         1 UNK         0.0798 
    117 H117       33.3155  -51.1872  -53.3556 H         1 UNK         0.3079 
    118 H118       30.9684  -50.7938  -50.8332 H         1 UNK         0.0794 
    119 H119       33.3315  -51.6448  -50.9711 H         1 UNK         0.0786 
    120 H120       33.2069  -50.1521  -50.0610 H         1 UNK         0.0786 
    121 H121       33.8392  -50.1211  -51.6983 H         1 UNK         0.0786 
    122 H122       30.6761  -48.5957  -51.0010 H         1 UNK         0.3032 
    123 H123       30.5989  -46.5280  -53.3315 H         1 UNK         0.1094 
    124 H124       29.7010  -46.8235  -51.0525 H         1 UNK         0.0794 
    125 H125       31.2500  -46.3897  -50.3322 H         1 UNK         0.0794 
    126 H126       30.3091  -45.1943  -51.2166 H         1 UNK         0.0794 
    127 H127       32.2598  -45.1545  -53.6930 H         1 UNK         0.3016 
@<TRIPOS>BOND
     1    1    2 1    
     2    1   67 1    
     3    1   68 1    
     4    1   69 1    
     5    2    3 2    
     6    2    4 am   BACKBONE|DICT|INTERRES
     7    4    5 1    
     8    4   70 1    
     9    5    6 1    
    10    5   65 1    
    11    5   71 1    
    12    6    7 1    
    13    6   72 1    
    14    6   73 1    
    15    7    8 1    
    16    8    9 1    
    17    8   74 1    
    18    8   75 1    
    19    9   10 ar   
    20    9   14 ar   
    21   10   11 ar   
    22   10   76 1    
    23   11   12 ar   
    24   11   48 1    
    25   12   13 ar   
    26   12   77 1    
    27   13   14 ar   
    28   13   15 1    
    29   14   78 1    
    30   15   16 1    
    31   15   79 1    
    32   15   80 1    
    33   16   17 1    
    34   17   18 1    
    35   17   81 1    
    36   17   82 1    
    37   18   19 1    
    38   18   22 1    
    39   18   83 1    
    40   19   20 am   BACKBONE|DICT|INTERRES
    41   19   21 2    
    42   20   84 1    
    43   20   85 1    
    44   22   23 am   BACKBONE|DICT|INTERRES
    45   22   86 1    
    46   23   24 2    
    47   23   25 1    
    48   25   26 1    
    49   25   27 1    
    50   25   87 1    
    51   26   88 1    
    52   26   89 1    
    53   26   90 1    
    54   27   28 am   BACKBONE|DICT|INTERRES
    55   27   91 1    
    56   28   29 2    
    57   28   30 1    
    58   30   31 1    
    59   30   32 1    
    60   30   92 1    
    61   31   93 1    
    62   31   94 1    
    63   31   95 1    
    64   32   33 am   BACKBONE|DICT|INTERRES
    65   32   96 1    
    66   33   34 2    
    67   33   35 1    
    68   35   36 1    
    69   35   37 1    
    70   35   97 1    
    71   36   98 1    
    72   36   99 1    
    73   36  100 1    
    74   37   38 am   BACKBONE|DICT|INTERRES
    75   37  101 1    
    76   38   39 2    
    77   38   40 1    
    78   40   41 1    
    79   40   42 1    
    80   40  102 1    
    81   41  103 1    
    82   41  104 1    
    83   41  105 1    
    84   42   43 am   BACKBONE|DICT|INTERRES
    85   42  106 1    
    86   43   44 2    
    87   43   45 1    
    88   45   46 1    
    89   45   49 1    
    90   45  107 1    
    91   46   47 1    
    92   46  108 1    
    93   46  109 1    
    94   47   48 1    
    95   48  110 1    
    96   48  111 1    
    97   49   50 am   BACKBONE|DICT|INTERRES
    98   49  112 1    
    99   50   51 2    
   100   50   52 1    
   101   52   53 1    
   102   52   54 1    
   103   52  113 1    
   104   53  114 1    
   105   53  115 1    
   106   53  116 1    
   107   54   55 am   BACKBONE|DICT|INTERRES
   108   54  117 1    
   109   55   56 2    
   110   55   57 1    
   111   57   58 1    
   112   57   59 1    
   113   57  118 1    
   114   58  119 1    
   115   58  120 1    
   116   58  121 1    
   117   59   60 am   BACKBONE|DICT|INTERRES
   118   59  122 1    
   119   60   61 2    
   120   60   62 1    
   121   62   63 1    
   122   62   64 1    
   123   62  123 1    
   124   63  124 1    
   125   63  125 1    
   126   63  126 1    
   127   64   65 am   BACKBONE|DICT|INTERRES
   128   64  127 1    
   129   65   66 2    
@<TRIPOS>SUBSTRUCTURE
     1 UNK         1 GROUP             0       ****    0 ROOT    
