@<TRIPOS>MOLECULE
3R134
127   129    1
SMALL
USER_CHARGES


@<TRIPOS>ATOM
      1 CA         28.6966  -44.4682  -51.3857 C.3       0 UNK        -0.1968 
      2 C          30.0292  -44.8414  -50.7534 C.2       0 UNK         0.4852 
      3 O          30.0983  -45.0295  -49.5372 O.2       0 UNK        -0.5359 
      4 N          31.0852  -44.9418  -51.5694 N.am      1 UNK        -0.4300 
      5 CA         32.4279  -45.3717  -51.1629 C.3       1 UNK         0.0863 
      6 C6         33.5080  -44.8476  -52.1450 C.3       11 UNK        -0.0953 
      7 S7         33.6244  -43.0297  -52.0964 S.3       11 UNK        -0.2369 
      8 C8         34.3528  -42.6632  -53.7254 C.3       11 UNK         0.0226 
      9 C9         33.4061  -42.9606  -54.8819 C.ar      11 UNK        -0.0699 
     10 C10        33.8202  -43.7833  -55.9355 C.ar      11 UNK        -0.0804 
     11 C11        32.9686  -44.0361  -57.0157 C.ar      11 UNK        -0.0871 
     12 C12        31.6931  -43.4664  -57.0334 C.ar      11 UNK        -0.1008 
     13 C13        31.2633  -42.6569  -55.9800 C.ar      11 UNK        -0.0735 
     14 C14        32.1263  -42.3961  -54.9131 C.ar      11 UNK        -0.0945 
     15 C15        29.8618  -42.0762  -56.0005 C.3       11 UNK         0.0169 
     16 S16        28.6769  -43.2406  -55.2608 S.3       11 UNK        -0.2669 
     17 C17        27.1184  -42.6563  -56.0127 C.3       11 UNK        -0.0850 
     18 CA         26.5689  -43.6093  -57.1104 C.3       10 UNK         0.0855 
     19 C          27.4540  -43.6465  -58.3875 C.2       10 UNK         0.5543 
     20 N          27.9705  -44.7875  -58.8266 N.am      10 UNK        -0.7343 
     21 O          27.6545  -42.6105  -59.0164 O.2       10 UNK        -0.5027 
     22 N          26.1928  -44.9272  -56.5738 N.am      10 UNK        -0.4495 
     23 C          25.0472  -45.1678  -55.9218 C.2       10 UNK         0.4903 
     24 O          24.1905  -44.3083  -55.7094 O.2       10 UNK        -0.4860 
     25 CA         24.7842  -46.5995  -55.4252 C.3       9 UNK         0.0227 
     26 CB         23.7622  -47.2947  -56.3381 C.3       9 UNK        -0.1964 
     27 N          25.9980  -47.4145  -55.3312 N.am      9 UNK        -0.4231 
     28 C          26.8930  -47.3198  -54.3346 C.2       9 UNK         0.5014 
     29 O          26.7597  -46.5515  -53.3809 O.2       9 UNK        -0.5270 
     30 CA         28.1530  -48.2051  -54.4190 C.3       8 UNK         0.0284 
     31 CB         28.7024  -48.6089  -53.0347 C.3       8 UNK        -0.1977 
     32 N          27.9956  -49.3679  -55.2999 N.am      8 UNK        -0.4342 
     33 C          27.2156  -50.4468  -55.1297 C.2       8 UNK         0.5039 
     34 O          26.5329  -50.6545  -54.1261 O.2       8 UNK        -0.5547 
     35 CA         27.1951  -51.4570  -56.2990 C.3       7 UNK         0.0281 
     36 CB         25.9276  -52.3383  -56.3086 C.3       7 UNK        -0.1963 
     37 N          27.4096  -50.8227  -57.6097 N.am      7 UNK        -0.4444 
     38 C          26.6316  -49.8931  -58.1880 C.2       7 UNK         0.5104 
     39 O          25.5731  -49.4936  -57.7063 O.2       7 UNK        -0.5100 
     40 CA         27.1932  -49.2388  -59.4667 C.3       6 UNK         0.0396 
     41 CB         26.3628  -48.0243  -59.9363 C.3       6 UNK        -0.1801 
     42 N          28.6094  -48.8822  -59.3032 N.am      6 UNK        -0.4747 
     43 C          29.1221  -48.0588  -58.3762 C.2       6 UNK         0.5012 
     44 O          28.4367  -47.3745  -57.6103 O.2       6 UNK        -0.5003 
     45 CA         30.6526  -48.0837  -58.2095 C.3       5 UNK         0.0782 
     46 C46        31.2207  -46.6667  -57.9638 C.3       11 UNK        -0.0868 
     47 S47        33.0435  -46.6703  -57.8708 S.3       11 UNK        -0.2515 
     48 C48        33.4257  -44.9171  -58.1689 C.3       11 UNK         0.0199 
     49 N          31.0155  -48.9957  -57.1214 N.am      5 UNK        -0.4607 
     50 C          30.8813  -50.3258  -57.1086 C.2       4 UNK         0.5031 
     51 O          30.3891  -50.9639  -58.0407 O.2       4 UNK        -0.5119 
     52 CA         31.3478  -51.0604  -55.8334 C.3       4 UNK         0.0263 
     53 CB         31.3545  -52.5912  -56.0056 C.3       4 UNK        -0.1967 
     54 N          32.6699  -50.6331  -55.3607 N.am      4 UNK        -0.4237 
     55 C          32.9310  -49.4947  -54.7063 C.2       3 UNK         0.4908 
     56 O          32.0899  -48.6173  -54.5017 O.2       3 UNK        -0.5102 
     57 CA         34.3771  -49.2812  -54.2325 C.3       3 UNK         0.0241 
     58 CB         35.0913  -48.2519  -55.1240 C.3       3 UNK        -0.1971 
     59 N          34.3921  -48.8108  -52.8484 N.am      3 UNK        -0.4139 
     60 C          34.0807  -49.5605  -51.7813 C.2       2 UNK         0.5016 
     61 O          33.8886  -50.7764  -51.8320 O.2       2 UNK        -0.5319 
     62 CA         33.9586  -48.8355  -50.4260 C.3       2 UNK         0.0286 
     63 CB         35.2452  -49.0121  -49.6029 C.3       2 UNK        -0.1963 
     64 N          33.6567  -47.4033  -50.5476 N.am      2 UNK        -0.4790 
     65 C          32.5008  -46.9078  -51.0154 C.2       1 UNK         0.5024 
     66 O          31.5452  -47.6184  -51.3337 O.2       1 UNK        -0.4888 
     67 H67        28.3883  -43.4750  -51.0610 H         1 UNK         0.0892 
     68 H68        28.7480  -44.4715  -52.4743 H         1 UNK         0.0892 
     69 H69        27.9271  -45.1807  -51.0892 H         1 UNK         0.0892 
     70 H70        30.9622  -44.7892  -52.5597 H         1 UNK         0.3107 
     71 H71        32.6364  -44.9551  -50.1748 H         1 UNK         0.0773 
     72 H72        33.2915  -45.1799  -53.1623 H         1 UNK         0.0680 
     73 H73        34.4990  -45.2325  -51.8999 H         1 UNK         0.0680 
     74 H74        34.6208  -41.6065  -53.7578 H         1 UNK         0.0650 
     75 H75        35.2849  -43.2214  -53.8271 H         1 UNK         0.0650 
     76 H76        34.8078  -44.2239  -55.9203 H         1 UNK         0.1397 
     77 H77        31.0247  -43.6638  -57.8605 H         1 UNK         0.1363 
     78 H78        31.7982  -41.7630  -54.0999 H         1 UNK         0.1355 
     79 H79        29.5780  -41.8540  -57.0302 H         1 UNK         0.0707 
     80 H80        29.8278  -41.1297  -55.4587 H         1 UNK         0.0707 
     81 H81        27.2473  -41.6486  -56.4117 H         1 UNK         0.1034 
     82 H82        26.3817  -42.5524  -55.2149 H         1 UNK         0.1034 
     83 H83        25.6457  -43.1543  -57.4750 H         1 UNK         0.0482 
     84 H84        27.8870  -45.6575  -58.3170 H         1 UNK         0.3460 
     85 H85        28.5109  -44.7626  -59.6755 H         1 UNK         0.3460 
     86 H86        26.8601  -45.6751  -56.6991 H         1 UNK         0.2989 
     87 H87        24.3435  -46.5262  -54.4287 H         1 UNK         0.0559 
     88 H88        22.8091  -46.7642  -56.3302 H         1 UNK         0.0848 
     89 H89        23.5664  -48.3172  -56.0141 H         1 UNK         0.0848 
     90 H90        24.1033  -47.3289  -57.3735 H         1 UNK         0.0848 
     91 H91        26.1573  -48.0801  -56.0782 H         1 UNK         0.3144 
     92 H92        28.9140  -47.5810  -54.8905 H         1 UNK         0.0727 
     93 H93        29.6126  -49.2019  -53.1261 H         1 UNK         0.0790 
     94 H94        27.9779  -49.1843  -52.4586 H         1 UNK         0.0790 
     95 H95        28.9576  -47.7275  -52.4449 H         1 UNK         0.0790 
     96 H96        28.4476  -49.2670  -56.1975 H         1 UNK         0.3215 
     97 H97        28.0483  -52.1170  -56.1376 H         1 UNK         0.0863 
     98 H98        25.9389  -53.0417  -57.1410 H         1 UNK         0.0808 
     99 H99        25.0180  -51.7418  -56.3846 H         1 UNK         0.0808 
    100 H100       25.8529  -52.9247  -55.3920 H         1 UNK         0.0808 
    101 H101       28.2907  -51.0469  -58.0631 H         1 UNK         0.3118 
    102 H102       27.1482  -49.9966  -60.2501 H         1 UNK         0.0546 
    103 H103       26.2886  -47.2544  -59.1682 H         1 UNK         0.0828 
    104 H104       25.3447  -48.3253  -60.1859 H         1 UNK         0.0828 
    105 H105       26.7934  -47.5682  -60.8274 H         1 UNK         0.0828 
    106 H106       29.2564  -49.4387  -59.8470 H         1 UNK         0.3005 
    107 H107       31.0930  -48.4668  -59.1328 H         1 UNK         0.1257 
    108 H108       30.9137  -45.9934  -58.7661 H         1 UNK         0.0775 
    109 H109       30.8284  -46.2461  -57.0351 H         1 UNK         0.0775 
    110 H110       34.5023  -44.8116  -58.3108 H         1 UNK         0.0840 
    111 H111       32.9654  -44.5938  -59.1039 H         1 UNK         0.0840 
    112 H112       31.4110  -48.5618  -56.2911 H         1 UNK         0.2987 
    113 H113       30.6194  -50.8229  -55.0550 H         1 UNK         0.0785 
    114 H114       31.6286  -53.0939  -55.0778 H         1 UNK         0.0798 
    115 H115       32.0563  -52.9060  -56.7789 H         1 UNK         0.0798 
    116 H116       30.3697  -52.9632  -56.2903 H         1 UNK         0.0798 
    117 H117       33.4296  -51.2778  -55.5269 H         1 UNK         0.3079 
    118 H118       34.9207  -50.2270  -54.2834 H         1 UNK         0.0794 
    119 H119       34.5912  -47.2821  -55.1027 H         1 UNK         0.0786 
    120 H120       35.1105  -48.5828  -56.1634 H         1 UNK         0.0786 
    121 H121       36.1253  -48.1039  -54.8120 H         1 UNK         0.0786 
    122 H122       34.4996  -47.8181  -52.7100 H         1 UNK         0.3032 
    123 H123       33.1363  -49.3084  -49.8838 H         1 UNK         0.1094 
    124 H124       36.1034  -48.5451  -50.0877 H         1 UNK         0.0794 
    125 H125       35.1430  -48.5793  -48.6074 H         1 UNK         0.0794 
    126 H126       35.4814  -50.0690  -49.4708 H         1 UNK         0.0794 
    127 H127       34.3907  -46.7630  -50.2784 H         1 UNK         0.3016 
@<TRIPOS>BOND
     1    1    2 1    
     2    1   67 1    
     3    1   68 1    
     4    1   69 1    
     5    2    3 2    
     6    2    4 am   BACKBONE|DICT|INTERRES
     7    4    5 1    
     8    4   70 1    
     9    5    6 1    
    10    5   65 1    
    11    5   71 1    
    12    6    7 1    
    13    6   72 1    
    14    6   73 1    
    15    7    8 1    
    16    8    9 1    
    17    8   74 1    
    18    8   75 1    
    19    9   10 ar   
    20    9   14 ar   
    21   10   11 ar   
    22   10   76 1    
    23   11   12 ar   
    24   11   48 1    
    25   12   13 ar   
    26   12   77 1    
    27   13   14 ar   
    28   13   15 1    
    29   14   78 1    
    30   15   16 1    
    31   15   79 1    
    32   15   80 1    
    33   16   17 1    
    34   17   18 1    
    35   17   81 1    
    36   17   82 1    
    37   18   19 1    
    38   18   22 1    
    39   18   83 1    
    40   19   20 am   BACKBONE|DICT|INTERRES
    41   19   21 2    
    42   20   84 1    
    43   20   85 1    
    44   22   23 am   BACKBONE|DICT|INTERRES
    45   22   86 1    
    46   23   24 2    
    47   23   25 1    
    48   25   26 1    
    49   25   27 1    
    50   25   87 1    
    51   26   88 1    
    52   26   89 1    
    53   26   90 1    
    54   27   28 am   BACKBONE|DICT|INTERRES
    55   27   91 1    
    56   28   29 2    
    57   28   30 1    
    58   30   31 1    
    59   30   32 1    
    60   30   92 1    
    61   31   93 1    
    62   31   94 1    
    63   31   95 1    
    64   32   33 am   BACKBONE|DICT|INTERRES
    65   32   96 1    
    66   33   34 2    
    67   33   35 1    
    68   35   36 1    
    69   35   37 1    
    70   35   97 1    
    71   36   98 1    
    72   36   99 1    
    73   36  100 1    
    74   37   38 am   BACKBONE|DICT|INTERRES
    75   37  101 1    
    76   38   39 2    
    77   38   40 1    
    78   40   41 1    
    79   40   42 1    
    80   40  102 1    
    81   41  103 1    
    82   41  104 1    
    83   41  105 1    
    84   42   43 am   BACKBONE|DICT|INTERRES
    85   42  106 1    
    86   43   44 2    
    87   43   45 1    
    88   45   46 1    
    89   45   49 1    
    90   45  107 1    
    91   46   47 1    
    92   46  108 1    
    93   46  109 1    
    94   47   48 1    
    95   48  110 1    
    96   48  111 1    
    97   49   50 am   BACKBONE|DICT|INTERRES
    98   49  112 1    
    99   50   51 2    
   100   50   52 1    
   101   52   53 1    
   102   52   54 1    
   103   52  113 1    
   104   53  114 1    
   105   53  115 1    
   106   53  116 1    
   107   54   55 am   BACKBONE|DICT|INTERRES
   108   54  117 1    
   109   55   56 2    
   110   55   57 1    
   111   57   58 1    
   112   57   59 1    
   113   57  118 1    
   114   58  119 1    
   115   58  120 1    
   116   58  121 1    
   117   59   60 am   BACKBONE|DICT|INTERRES
   118   59  122 1    
   119   60   61 2    
   120   60   62 1    
   121   62   63 1    
   122   62   64 1    
   123   62  123 1    
   124   63  124 1    
   125   63  125 1    
   126   63  126 1    
   127   64   65 am   BACKBONE|DICT|INTERRES
   128   64  127 1    
   129   65   66 2    
@<TRIPOS>SUBSTRUCTURE
     1 UNK         1 GROUP             0       ****    0 ROOT    
