@<TRIPOS>MOLECULE
3R134
127   129    1
SMALL
USER_CHARGES


@<TRIPOS>ATOM
      1 CA         32.5247  -49.7028  -57.1702 C.3       0 UNK        -0.1968 
      2 C          33.5495  -48.8531  -56.4364 C.2       0 UNK         0.4852 
      3 O          34.7378  -48.9273  -56.7511 O.2       0 UNK        -0.5359 
      4 N          33.0992  -48.0763  -55.4402 N.am      1 UNK        -0.4300 
      5 CA         33.8599  -47.1456  -54.5892 C.3       1 UNK         0.0863 
      6 C6         34.6047  -46.0269  -55.3616 C.3       11 UNK        -0.0953 
      7 S7         33.4294  -44.9768  -56.2738 S.3       11 UNK        -0.2369 
      8 C8         33.2452  -43.5805  -55.1207 C.3       11 UNK         0.0226 
      9 C9         31.8481  -42.9789  -55.1716 C.ar      11 UNK        -0.0699 
     10 C10        31.0637  -42.9268  -54.0141 C.ar      11 UNK        -0.0804 
     11 C11        29.7948  -42.3420  -54.0460 C.ar      11 UNK        -0.0871 
     12 C12        29.3147  -41.8026  -55.2412 C.ar      11 UNK        -0.1008 
     13 C13        30.0705  -41.8824  -56.4123 C.ar      11 UNK        -0.0735 
     14 C14        31.3432  -42.4588  -56.3684 C.ar      11 UNK        -0.0945 
     15 C15        29.5115  -41.3531  -57.7240 C.3       11 UNK         0.0169 
     16 S16        28.3890  -42.5577  -58.5075 S.3       11 UNK        -0.2669 
     17 C17        26.8023  -42.2366  -57.6543 C.3       11 UNK        -0.0850 
     18 CA         26.4021  -43.3379  -56.6221 C.3       10 UNK         0.0855 
     19 C          25.1213  -42.9856  -55.8039 C.2       10 UNK         0.5543 
     20 N          24.9812  -41.7482  -55.3449 N.am      10 UNK        -0.7343 
     21 O          24.2614  -43.8255  -55.5420 O.2       10 UNK        -0.5027 
     22 N          26.3618  -44.6920  -57.1936 N.am      10 UNK        -0.4495 
     23 C          25.5762  -45.1211  -58.1916 C.2       10 UNK         0.4903 
     24 O          24.8008  -44.3976  -58.8195 O.2       10 UNK        -0.4860 
     25 CA         25.6524  -46.6235  -58.5302 C.3       9 UNK         0.0227 
     26 CB         25.2222  -46.9442  -59.9779 C.3       9 UNK        -0.1964 
     27 N          26.9546  -47.2186  -58.2089 N.am      9 UNK        -0.4231 
     28 C          28.1446  -46.9561  -58.7741 C.2       9 UNK         0.5014 
     29 O          28.2941  -46.2284  -59.7561 O.2       9 UNK        -0.5270 
     30 CA         29.3922  -47.5942  -58.1293 C.3       8 UNK         0.0284 
     31 CB         30.2994  -46.5047  -57.5310 C.3       8 UNK        -0.1977 
     32 N          29.0666  -48.5746  -57.0881 N.am      8 UNK        -0.4342 
     33 C          28.6654  -49.8324  -57.3242 C.2       8 UNK         0.5039 
     34 O          28.6404  -50.3430  -58.4438 O.2       8 UNK        -0.5547 
     35 CA         28.1673  -50.6453  -56.1156 C.3       7 UNK         0.0281 
     36 CB         29.2989  -51.4920  -55.5113 C.3       7 UNK        -0.1963 
     37 N          27.5645  -49.8060  -55.0746 N.am      7 UNK        -0.4444 
     38 C          26.3942  -49.1638  -55.2029 C.2       7 UNK         0.5104 
     39 O          25.6846  -49.2325  -56.2051 O.2       7 UNK        -0.5100 
     40 CA         25.9688  -48.2492  -54.0415 C.3       6 UNK         0.0396 
     41 CB         25.1827  -49.0463  -52.9892 C.3       6 UNK        -0.1801 
     42 N          27.0974  -47.5698  -53.3990 N.am      6 UNK        -0.4747 
     43 C          27.8905  -46.6684  -53.9999 C.2       6 UNK         0.5012 
     44 O          27.7520  -46.3151  -55.1717 O.2       6 UNK        -0.5003 
     45 CA         29.0792  -46.1376  -53.1662 C.3       5 UNK         0.0782 
     46 C46        28.6623  -45.0440  -52.1452 C.3       11 UNK        -0.0868 
     47 S47        27.7017  -43.6358  -52.8036 S.3       11 UNK        -0.2515 
     48 C48        28.9285  -42.2916  -52.7992 C.3       11 UNK         0.0199 
     49 N          29.7530  -47.2375  -52.4618 N.am      5 UNK        -0.4607 
     50 C          30.3590  -48.2864  -53.0302 C.2       4 UNK         0.5031 
     51 O          30.5356  -48.4122  -54.2464 O.2       4 UNK        -0.5119 
     52 CA         30.7662  -49.4155  -52.0757 C.3       4 UNK         0.0263 
     53 CB         29.5164  -50.2203  -51.6551 C.3       4 UNK        -0.1967 
     54 N          31.7415  -50.2843  -52.7320 N.am      4 UNK        -0.4237 
     55 C          32.4305  -51.2756  -52.1487 C.2       3 UNK         0.4908 
     56 O          32.3355  -51.5748  -50.9580 O.2       3 UNK        -0.5102 
     57 CA         33.4084  -52.0535  -53.0441 C.3       3 UNK         0.0241 
     58 CB         32.7049  -52.6739  -54.2655 C.3       3 UNK        -0.1971 
     59 N          34.4984  -51.1871  -53.4860 N.am      3 UNK        -0.4139 
     60 C          35.5386  -50.8096  -52.7280 C.2       2 UNK         0.5016 
     61 O          35.7867  -51.2672  -51.6122 O.2       2 UNK        -0.5319 
     62 CA         36.4359  -49.7038  -53.3120 C.3       2 UNK         0.0286 
     63 CB         37.5511  -50.3054  -54.1817 C.3       2 UNK        -0.1963 
     64 N          35.6599  -48.7463  -54.1049 N.am      2 UNK        -0.4790 
     65 C          34.7827  -47.8725  -53.5947 C.2       1 UNK         0.5024 
     66 O          34.6491  -47.6683  -52.3880 O.2       1 UNK        -0.4888 
     67 H67        32.8984  -50.7171  -57.3068 H         1 UNK         0.0892 
     68 H68        31.5870  -49.7601  -56.6221 H         1 UNK         0.0892 
     69 H69        32.3208  -49.2788  -58.1529 H         1 UNK         0.0892 
     70 H70        32.1065  -48.1026  -55.2182 H         1 UNK         0.3107 
     71 H71        33.1036  -46.6547  -53.9735 H         1 UNK         0.0773 
     72 H72        35.1910  -45.4039  -54.6833 H         1 UNK         0.0680 
     73 H73        35.3188  -46.4451  -56.0721 H         1 UNK         0.0680 
     74 H74        33.9811  -42.8140  -55.3669 H         1 UNK         0.0650 
     75 H75        33.4706  -43.9121  -54.1060 H         1 UNK         0.0650 
     76 H76        31.4410  -43.3358  -53.0869 H         1 UNK         0.1397 
     77 H77        28.3359  -41.3457  -55.2629 H         1 UNK         0.1363 
     78 H78        31.9407  -42.5135  -57.2682 H         1 UNK         0.1355 
     79 H79        30.3277  -41.1432  -58.4169 H         1 UNK         0.0707 
     80 H80        29.0019  -40.4016  -57.5661 H         1 UNK         0.0707 
     81 H81        26.8614  -41.2587  -57.1776 H         1 UNK         0.1034 
     82 H82        26.0274  -42.1332  -58.4148 H         1 UNK         0.1034 
     83 H83        27.1927  -43.3991  -55.8762 H         1 UNK         0.0482 
     84 H84        25.6723  -41.0363  -55.5138 H         1 UNK         0.3460 
     85 H85        24.1610  -41.5253  -54.8030 H         1 UNK         0.3460 
     86 H86        26.9234  -45.3738  -56.6931 H         1 UNK         0.2989 
     87 H87        24.9366  -47.1099  -57.8664 H         1 UNK         0.0559 
     88 H88        24.1865  -46.6497  -60.1510 H         1 UNK         0.0848 
     89 H89        25.2930  -48.0117  -60.1862 H         1 UNK         0.0848 
     90 H90        25.8335  -46.4163  -60.7101 H         1 UNK         0.0848 
     91 H91        26.9441  -47.8479  -57.4164 H         1 UNK         0.3144 
     92 H92        29.9469  -48.0982  -58.9234 H         1 UNK         0.0727 
     93 H93        29.8006  -45.9377  -56.7451 H         1 UNK         0.0790 
     94 H94        30.6060  -45.7878  -58.2939 H         1 UNK         0.0790 
     95 H95        31.2080  -46.9298  -57.1111 H         1 UNK         0.0790 
     96 H96        29.0806  -48.2406  -56.1324 H         1 UNK         0.3215 
     97 H97        27.3978  -51.3282  -56.4831 H         1 UNK         0.0863 
     98 H98        30.0783  -50.8729  -55.0721 H         1 UNK         0.0808 
     99 H99        29.7684  -52.1169  -56.2724 H         1 UNK         0.0808 
    100 H100       28.9238  -52.1588  -54.7348 H         1 UNK         0.0808 
    101 H101       28.0952  -49.6688  -54.2285 H         1 UNK         0.3118 
    102 H102       25.3088  -47.4812  -54.4512 H         1 UNK         0.0546 
    103 H103       25.7964  -49.8159  -52.5194 H         1 UNK         0.0828 
    104 H104       24.3239  -49.5454  -53.4405 H         1 UNK         0.0828 
    105 H105       24.7989  -48.3956  -52.2034 H         1 UNK         0.0828 
    106 H106       27.2770  -47.7996  -52.4327 H         1 UNK         0.3005 
    107 H107       29.7911  -45.7005  -53.8706 H         1 UNK         0.1257 
    108 H108       28.0545  -45.4894  -51.3554 H         1 UNK         0.0775 
    109 H109       29.5518  -44.6626  -51.6420 H         1 UNK         0.0775 
    110 H110       28.3997  -41.3377  -52.7641 H         1 UNK         0.0840 
    111 H111       29.5360  -42.3299  -51.8939 H         1 UNK         0.0840 
    112 H112       29.6741  -47.2232  -51.4550 H         1 UNK         0.2987 
    113 H113       31.2352  -48.9709  -51.1954 H         1 UNK         0.0785 
    114 H114       28.7460  -49.5757  -51.2306 H         1 UNK         0.0798 
    115 H115       29.7540  -50.9606  -50.8916 H         1 UNK         0.0798 
    116 H116       29.0738  -50.7504  -52.4984 H         1 UNK         0.0798 
    117 H117       31.8816  -50.0777  -53.7103 H         1 UNK         0.3079 
    118 H118       33.8267  -52.8693  -52.4500 H         1 UNK         0.0794 
    119 H119       33.3782  -53.3377  -54.8083 H         1 UNK         0.0786 
    120 H120       32.3489  -51.9212  -54.9681 H         1 UNK         0.0786 
    121 H121       31.8439  -53.2703  -53.9597 H         1 UNK         0.0786 
    122 H122       34.4079  -50.7607  -54.3952 H         1 UNK         0.3032 
    123 H123       36.8959  -49.1717  -52.4759 H         1 UNK         0.1094 
    124 H124       38.1503  -51.0159  -53.6104 H         1 UNK         0.0794 
    125 H125       37.1501  -50.8362  -55.0462 H         1 UNK         0.0794 
    126 H126       38.2276  -49.5327  -54.5474 H         1 UNK         0.0794 
    127 H127       35.6655  -48.8549  -55.1177 H         1 UNK         0.3016 
@<TRIPOS>BOND
     1    1    2 1    
     2    1   67 1    
     3    1   68 1    
     4    1   69 1    
     5    2    3 2    
     6    2    4 am   BACKBONE|DICT|INTERRES
     7    4    5 1    
     8    4   70 1    
     9    5    6 1    
    10    5   65 1    
    11    5   71 1    
    12    6    7 1    
    13    6   72 1    
    14    6   73 1    
    15    7    8 1    
    16    8    9 1    
    17    8   74 1    
    18    8   75 1    
    19    9   10 ar   
    20    9   14 ar   
    21   10   11 ar   
    22   10   76 1    
    23   11   12 ar   
    24   11   48 1    
    25   12   13 ar   
    26   12   77 1    
    27   13   14 ar   
    28   13   15 1    
    29   14   78 1    
    30   15   16 1    
    31   15   79 1    
    32   15   80 1    
    33   16   17 1    
    34   17   18 1    
    35   17   81 1    
    36   17   82 1    
    37   18   19 1    
    38   18   22 1    
    39   18   83 1    
    40   19   20 am   BACKBONE|DICT|INTERRES
    41   19   21 2    
    42   20   84 1    
    43   20   85 1    
    44   22   23 am   BACKBONE|DICT|INTERRES
    45   22   86 1    
    46   23   24 2    
    47   23   25 1    
    48   25   26 1    
    49   25   27 1    
    50   25   87 1    
    51   26   88 1    
    52   26   89 1    
    53   26   90 1    
    54   27   28 am   BACKBONE|DICT|INTERRES
    55   27   91 1    
    56   28   29 2    
    57   28   30 1    
    58   30   31 1    
    59   30   32 1    
    60   30   92 1    
    61   31   93 1    
    62   31   94 1    
    63   31   95 1    
    64   32   33 am   BACKBONE|DICT|INTERRES
    65   32   96 1    
    66   33   34 2    
    67   33   35 1    
    68   35   36 1    
    69   35   37 1    
    70   35   97 1    
    71   36   98 1    
    72   36   99 1    
    73   36  100 1    
    74   37   38 am   BACKBONE|DICT|INTERRES
    75   37  101 1    
    76   38   39 2    
    77   38   40 1    
    78   40   41 1    
    79   40   42 1    
    80   40  102 1    
    81   41  103 1    
    82   41  104 1    
    83   41  105 1    
    84   42   43 am   BACKBONE|DICT|INTERRES
    85   42  106 1    
    86   43   44 2    
    87   43   45 1    
    88   45   46 1    
    89   45   49 1    
    90   45  107 1    
    91   46   47 1    
    92   46  108 1    
    93   46  109 1    
    94   47   48 1    
    95   48  110 1    
    96   48  111 1    
    97   49   50 am   BACKBONE|DICT|INTERRES
    98   49  112 1    
    99   50   51 2    
   100   50   52 1    
   101   52   53 1    
   102   52   54 1    
   103   52  113 1    
   104   53  114 1    
   105   53  115 1    
   106   53  116 1    
   107   54   55 am   BACKBONE|DICT|INTERRES
   108   54  117 1    
   109   55   56 2    
   110   55   57 1    
   111   57   58 1    
   112   57   59 1    
   113   57  118 1    
   114   58  119 1    
   115   58  120 1    
   116   58  121 1    
   117   59   60 am   BACKBONE|DICT|INTERRES
   118   59  122 1    
   119   60   61 2    
   120   60   62 1    
   121   62   63 1    
   122   62   64 1    
   123   62  123 1    
   124   63  124 1    
   125   63  125 1    
   126   63  126 1    
   127   64   65 am   BACKBONE|DICT|INTERRES
   128   64  127 1    
   129   65   66 2    
@<TRIPOS>SUBSTRUCTURE
     1 UNK         1 GROUP             0       ****    0 ROOT    
