@<TRIPOS>MOLECULE
3R134
127   129    1
SMALL
USER_CHARGES


@<TRIPOS>ATOM
      1 CA         36.9343  -47.9080  -55.1392 C.3       0 UNK        -0.1968 
      2 C          36.0330  -47.2240  -54.1223 C.2       0 UNK         0.4852 
      3 O          35.8984  -47.7167  -53.0010 O.2       0 UNK        -0.5359 
      4 N          35.4103  -46.1036  -54.5189 N.am      1 UNK        -0.4300 
      5 CA         34.4994  -45.2589  -53.7365 C.3       1 UNK         0.0863 
      6 C6         35.2484  -44.3491  -52.7261 C.3       11 UNK        -0.0953 
      7 S7         34.2111  -43.1158  -51.8597 S.3       11 UNK        -0.2369 
      8 C8         33.5084  -42.1074  -53.2123 C.3       11 UNK         0.0226 
      9 C9         32.2060  -42.6790  -53.7682 C.ar      11 UNK        -0.0699 
     10 C10        31.1235  -42.9267  -52.9161 C.ar      11 UNK        -0.0804 
     11 C11        29.9242  -43.4496  -53.4109 C.ar      11 UNK        -0.0871 
     12 C12        29.8101  -43.7059  -54.7809 C.ar      11 UNK        -0.1008 
     13 C13        30.8821  -43.4714  -55.6436 C.ar      11 UNK        -0.0735 
     14 C14        32.0738  -42.9456  -55.1361 C.ar      11 UNK        -0.0945 
     15 C15        30.7407  -43.8034  -57.1192 C.3       11 UNK         0.0169 
     16 S16        30.0054  -42.4106  -58.0265 S.3       11 UNK        -0.2669 
     17 C17        29.3149  -43.2612  -59.4868 C.3       11 UNK        -0.0850 
     18 CA         27.7687  -43.3820  -59.4170 C.3       10 UNK         0.0855 
     19 C          27.1799  -43.8884  -60.7660 C.2       10 UNK         0.5543 
     20 N          26.4498  -44.9964  -60.8008 N.am      10 UNK        -0.7343 
     21 O          27.3814  -43.2560  -61.7998 O.2       10 UNK        -0.5027 
     22 N          27.3341  -44.1613  -58.2446 N.am      10 UNK        -0.4495 
     23 C          26.1967  -43.9702  -57.5689 C.2       10 UNK         0.4903 
     24 O          25.3700  -43.0990  -57.8436 O.2       10 UNK        -0.4860 
     25 CA         25.9352  -44.9452  -56.4047 C.3       9 UNK         0.0227 
     26 CB         24.8356  -44.4468  -55.4495 C.3       9 UNK        -0.1964 
     27 N          25.5821  -46.2824  -56.8881 N.am      9 UNK        -0.4231 
     28 C          26.4481  -47.1658  -57.3982 C.2       9 UNK         0.5014 
     29 O          27.6514  -46.9372  -57.5355 O.2       9 UNK        -0.5270 
     30 CA         25.8702  -48.4966  -57.8863 C.3       8 UNK         0.0284 
     31 CB         25.7097  -48.4839  -59.4189 C.3       8 UNK        -0.1977 
     32 N          26.7497  -49.5866  -57.4684 N.am      8 UNK        -0.4342 
     33 C          26.3946  -50.8773  -57.4084 C.2       8 UNK         0.5039 
     34 O          25.2852  -51.2987  -57.7399 O.2       8 UNK        -0.5547 
     35 CA         27.4344  -51.8677  -56.8641 C.3       7 UNK         0.0281 
     36 CB         28.5889  -52.0768  -57.8595 C.3       7 UNK        -0.1963 
     37 N          27.9532  -51.4085  -55.5762 N.am      7 UNK        -0.4444 
     38 C          27.4038  -51.7078  -54.3903 C.2       7 UNK         0.5104 
     39 O          26.4646  -52.4925  -54.2514 O.2       7 UNK        -0.5100 
     40 CA         27.9871  -51.0236  -53.1375 C.3       6 UNK         0.0396 
     41 CB         29.0258  -51.9357  -52.4661 C.3       6 UNK        -0.1801 
     42 N          28.5979  -49.7182  -53.3937 N.am      6 UNK        -0.4747 
     43 C          27.9610  -48.6383  -53.8715 C.2       6 UNK         0.5012 
     44 O          26.7511  -48.5954  -54.0953 O.2       6 UNK        -0.5003 
     45 CA         28.8451  -47.4168  -54.1945 C.3       5 UNK         0.0782 
     46 C46        29.0254  -46.5223  -52.9380 C.3       11 UNK        -0.0868 
     47 S47        27.7669  -45.2045  -52.8525 S.3       11 UNK        -0.2515 
     48 C48        28.7711  -43.7294  -52.4466 C.3       11 UNK         0.0199 
     49 N          30.1354  -47.7807  -54.7970 N.am      5 UNK        -0.4607 
     50 C          30.3259  -48.5585  -55.8741 C.2       4 UNK         0.5031 
     51 O          29.4200  -49.0998  -56.5038 O.2       4 UNK        -0.5119 
     52 CA         31.7801  -48.8428  -56.2729 C.3       4 UNK         0.0263 
     53 CB         32.3932  -47.6542  -57.0332 C.3       4 UNK        -0.1967 
     54 N          32.5802  -49.1648  -55.0905 N.am      4 UNK        -0.4237 
     55 C          32.5674  -50.3607  -54.4817 C.2       3 UNK         0.4908 
     56 O          31.9879  -51.3495  -54.9310 O.2       3 UNK        -0.5102 
     57 CA         33.2994  -50.4773  -53.1324 C.3       3 UNK         0.0241 
     58 CB         34.7338  -50.9901  -53.3329 C.3       3 UNK        -0.1971 
     59 N          33.3235  -49.2190  -52.3813 N.am      3 UNK        -0.4139 
     60 C          32.2408  -48.6674  -51.8110 C.2       2 UNK         0.5016 
     61 O          31.1228  -49.1834  -51.8262 O.2       2 UNK        -0.5319 
     62 CA         32.4186  -47.2803  -51.1647 C.3       2 UNK         0.0286 
     63 CB         32.8245  -47.4218  -49.6899 C.3       2 UNK        -0.1963 
     64 N          33.3883  -46.4229  -51.8552 N.am      2 UNK        -0.4790 
     65 C          33.3337  -46.0819  -53.1509 C.2       1 UNK         0.5024 
     66 O          32.4331  -46.4439  -53.9047 O.2       1 UNK        -0.4888 
     67 H67        36.4570  -48.8099  -55.5206 H         1 UNK         0.0892 
     68 H68        37.1593  -47.2584  -55.9848 H         1 UNK         0.0892 
     69 H69        37.8779  -48.1916  -54.6737 H         1 UNK         0.0892 
     70 H70        35.5571  -45.7893  -55.4681 H         1 UNK         0.3107 
     71 H71        34.0511  -44.6084  -54.4831 H         1 UNK         0.0773 
     72 H72        36.0351  -43.8016  -53.2475 H         1 UNK         0.0680 
     73 H73        35.7632  -44.9514  -51.9758 H         1 UNK         0.0680 
     74 H74        33.3050  -41.1079  -52.8260 H         1 UNK         0.0650 
     75 H75        34.2554  -41.9848  -53.9981 H         1 UNK         0.0650 
     76 H76        31.2227  -42.7181  -51.8595 H         1 UNK         0.1397 
     77 H77        28.8890  -44.1012  -55.1821 H         1 UNK         0.1363 
     78 H78        32.8995  -42.7529  -55.8072 H         1 UNK         0.1355 
     79 H79        31.7108  -44.0499  -57.5534 H         1 UNK         0.0707 
     80 H80        30.1186  -44.6934  -57.2300 H         1 UNK         0.0707 
     81 H81        29.7755  -44.2434  -59.6077 H         1 UNK         0.1034 
     82 H82        29.6123  -42.6831  -60.3640 H         1 UNK         0.1034 
     83 H83        27.3795  -42.3683  -59.3026 H         1 UNK         0.0482 
     84 H84        26.2800  -45.5150  -59.9558 H         1 UNK         0.3460 
     85 H85        26.0694  -45.3112  -61.6794 H         1 UNK         0.3460 
     86 H86        27.8908  -44.9751  -58.0055 H         1 UNK         0.2989 
     87 H87        26.8568  -45.0192  -55.8261 H         1 UNK         0.0559 
     88 H88        23.8660  -44.3766  -55.9439 H         1 UNK         0.0848 
     89 H89        25.0776  -43.4561  -55.0622 H         1 UNK         0.0848 
     90 H90        24.7293  -45.1091  -54.5900 H         1 UNK         0.0848 
     91 H91        24.6033  -46.5290  -56.8478 H         1 UNK         0.3144 
     92 H92        24.8924  -48.6447  -57.4229 H         1 UNK         0.0727 
     93 H93        26.6698  -48.3566  -59.9210 H         1 UNK         0.0790 
     94 H94        25.0605  -47.6678  -59.7383 H         1 UNK         0.0790 
     95 H95        25.2629  -49.4087  -59.7837 H         1 UNK         0.0790 
     96 H96        27.6834  -49.3020  -57.1678 H         1 UNK         0.3215 
     97 H97        26.9404  -52.8330  -56.7317 H         1 UNK         0.0863 
     98 H98        29.1210  -51.1513  -58.0789 H         1 UNK         0.0808 
     99 H99        28.2153  -52.4665  -58.8072 H         1 UNK         0.0808 
    100 H100       29.3144  -52.7949  -57.4771 H         1 UNK         0.0808 
    101 H101       28.6804  -50.7014  -55.6134 H         1 UNK         0.3118 
    102 H102       27.1646  -50.8678  -52.4366 H         1 UNK         0.0546 
    103 H103       29.3873  -51.5058  -51.5317 H         1 UNK         0.0828 
    104 H104       29.8886  -52.1057  -53.1116 H         1 UNK         0.0828 
    105 H105       28.5970  -52.9104  -52.2297 H         1 UNK         0.0828 
    106 H106       29.5836  -49.6263  -53.1675 H         1 UNK         0.3005 
    107 H107       28.3243  -46.8473  -54.9656 H         1 UNK         0.1257 
    108 H108       30.0075  -46.0530  -52.9522 H         1 UNK         0.0775 
    109 H109       29.0042  -47.0984  -52.0104 H         1 UNK         0.0775 
    110 H110       28.1163  -42.8575  -52.4261 H         1 UNK         0.0840 
    111 H111       29.1524  -43.8523  -51.4316 H         1 UNK         0.0840 
    112 H112       30.9560  -47.3479  -54.3786 H         1 UNK         0.2987 
    113 H113       31.7827  -49.7044  -56.9446 H         1 UNK         0.0785 
    114 H114       33.4267  -47.8548  -57.3154 H         1 UNK         0.0798 
    115 H115       31.8382  -47.4598  -57.9519 H         1 UNK         0.0798 
    116 H116       32.3771  -46.7336  -56.4504 H         1 UNK         0.0798 
    117 H117       33.0154  -48.3837  -54.6178 H         1 UNK         0.3079 
    118 H118       32.7596  -51.2138  -52.5330 H         1 UNK         0.0794 
    119 H119       35.2429  -51.1283  -52.3789 H         1 UNK         0.0786 
    120 H120       35.3295  -50.3039  -53.9338 H         1 UNK         0.0786 
    121 H121       34.7348  -51.9543  -53.8432 H         1 UNK         0.0786 
    122 H122       34.2026  -48.7095  -52.3581 H         1 UNK         0.3032 
    123 H123       31.4515  -46.7770  -51.2023 H         1 UNK         0.1094 
    124 H124       32.1079  -48.0391  -49.1459 H         1 UNK         0.0794 
    125 H125       33.8047  -47.8885  -49.5834 H         1 UNK         0.0794 
    126 H126       32.8571  -46.4522  -49.1924 H         1 UNK         0.0794 
    127 H127       34.1810  -46.1056  -51.3159 H         1 UNK         0.3016 
@<TRIPOS>BOND
     1    1    2 1    
     2    1   67 1    
     3    1   68 1    
     4    1   69 1    
     5    2    3 2    
     6    2    4 am   BACKBONE|DICT|INTERRES
     7    4    5 1    
     8    4   70 1    
     9    5    6 1    
    10    5   65 1    
    11    5   71 1    
    12    6    7 1    
    13    6   72 1    
    14    6   73 1    
    15    7    8 1    
    16    8    9 1    
    17    8   74 1    
    18    8   75 1    
    19    9   10 ar   
    20    9   14 ar   
    21   10   11 ar   
    22   10   76 1    
    23   11   12 ar   
    24   11   48 1    
    25   12   13 ar   
    26   12   77 1    
    27   13   14 ar   
    28   13   15 1    
    29   14   78 1    
    30   15   16 1    
    31   15   79 1    
    32   15   80 1    
    33   16   17 1    
    34   17   18 1    
    35   17   81 1    
    36   17   82 1    
    37   18   19 1    
    38   18   22 1    
    39   18   83 1    
    40   19   20 am   BACKBONE|DICT|INTERRES
    41   19   21 2    
    42   20   84 1    
    43   20   85 1    
    44   22   23 am   BACKBONE|DICT|INTERRES
    45   22   86 1    
    46   23   24 2    
    47   23   25 1    
    48   25   26 1    
    49   25   27 1    
    50   25   87 1    
    51   26   88 1    
    52   26   89 1    
    53   26   90 1    
    54   27   28 am   BACKBONE|DICT|INTERRES
    55   27   91 1    
    56   28   29 2    
    57   28   30 1    
    58   30   31 1    
    59   30   32 1    
    60   30   92 1    
    61   31   93 1    
    62   31   94 1    
    63   31   95 1    
    64   32   33 am   BACKBONE|DICT|INTERRES
    65   32   96 1    
    66   33   34 2    
    67   33   35 1    
    68   35   36 1    
    69   35   37 1    
    70   35   97 1    
    71   36   98 1    
    72   36   99 1    
    73   36  100 1    
    74   37   38 am   BACKBONE|DICT|INTERRES
    75   37  101 1    
    76   38   39 2    
    77   38   40 1    
    78   40   41 1    
    79   40   42 1    
    80   40  102 1    
    81   41  103 1    
    82   41  104 1    
    83   41  105 1    
    84   42   43 am   BACKBONE|DICT|INTERRES
    85   42  106 1    
    86   43   44 2    
    87   43   45 1    
    88   45   46 1    
    89   45   49 1    
    90   45  107 1    
    91   46   47 1    
    92   46  108 1    
    93   46  109 1    
    94   47   48 1    
    95   48  110 1    
    96   48  111 1    
    97   49   50 am   BACKBONE|DICT|INTERRES
    98   49  112 1    
    99   50   51 2    
   100   50   52 1    
   101   52   53 1    
   102   52   54 1    
   103   52  113 1    
   104   53  114 1    
   105   53  115 1    
   106   53  116 1    
   107   54   55 am   BACKBONE|DICT|INTERRES
   108   54  117 1    
   109   55   56 2    
   110   55   57 1    
   111   57   58 1    
   112   57   59 1    
   113   57  118 1    
   114   58  119 1    
   115   58  120 1    
   116   58  121 1    
   117   59   60 am   BACKBONE|DICT|INTERRES
   118   59  122 1    
   119   60   61 2    
   120   60   62 1    
   121   62   63 1    
   122   62   64 1    
   123   62  123 1    
   124   63  124 1    
   125   63  125 1    
   126   63  126 1    
   127   64   65 am   BACKBONE|DICT|INTERRES
   128   64  127 1    
   129   65   66 2    
@<TRIPOS>SUBSTRUCTURE
     1 UNK         1 GROUP             0       ****    0 ROOT    
