@<TRIPOS>MOLECULE
3R134
127   129    1
SMALL
USER_CHARGES


@<TRIPOS>ATOM
      1 CA         32.2511  -42.4300  -58.0104 C.3       0 UNK        -0.1968 
      2 C          33.4099  -42.9613  -57.1791 C.2       0 UNK         0.4852 
      3 O          34.5537  -42.5639  -57.4038 O.2       0 UNK        -0.5359 
      4 N          33.1129  -43.8615  -56.2321 N.am      1 UNK        -0.4300 
      5 CA         34.0560  -44.5518  -55.3399 C.3       1 UNK         0.0863 
      6 C6         34.8268  -43.6180  -54.3641 C.3       11 UNK        -0.0953 
      7 S7         33.7204  -42.6198  -53.3149 S.3       11 UNK        -0.2369 
      8 C8         33.1551  -43.8788  -52.1174 C.3       11 UNK         0.0226 
      9 C9         31.6363  -43.9627  -51.9768 C.ar      11 UNK        -0.0699 
     10 C10        31.0879  -44.2964  -50.7352 C.ar      11 UNK        -0.0804 
     11 C11        29.7040  -44.3996  -50.5687 C.ar      11 UNK        -0.0871 
     12 C12        28.8588  -44.1463  -51.6511 C.ar      11 UNK        -0.1008 
     13 C13        29.3911  -43.8342  -52.9046 C.ar      11 UNK        -0.0735 
     14 C14        30.7774  -43.7503  -53.0631 C.ar      11 UNK        -0.0945 
     15 C15        28.4657  -43.5751  -54.0833 C.3       11 UNK         0.0169 
     16 S16        27.5757  -45.0738  -54.6076 S.3       11 UNK        -0.2669 
     17 C17        28.9149  -46.1097  -55.2948 C.3       11 UNK        -0.0850 
     18 CA         29.3216  -45.7089  -56.7364 C.3       10 UNK         0.0855 
     19 C          30.4789  -46.6074  -57.2588 C.2       10 UNK         0.5543 
     20 N          30.2708  -47.4618  -58.2542 N.am      10 UNK        -0.7343 
     21 O          31.5989  -46.4981  -56.7678 O.2       10 UNK        -0.5027 
     22 N          28.1667  -45.6327  -57.6425 N.am      10 UNK        -0.4495 
     23 C          28.1612  -44.9583  -58.8006 C.2       10 UNK         0.4903 
     24 O          29.0946  -44.2445  -59.1718 O.2       10 UNK        -0.4860 
     25 CA         26.9089  -45.0973  -59.6951 C.3       9 UNK         0.0227 
     26 CB         27.2388  -44.9223  -61.1930 C.3       9 UNK        -0.1964 
     27 N          26.1481  -46.3373  -59.4810 N.am      9 UNK        -0.4231 
     28 C          26.6056  -47.5930  -59.5885 C.2       9 UNK         0.5014 
     29 O          27.7616  -47.8914  -59.9006 O.2       9 UNK        -0.5270 
     30 CA         25.6047  -48.7095  -59.2520 C.3       8 UNK         0.0284 
     31 CB         25.1975  -49.4774  -60.5201 C.3       8 UNK        -0.1977 
     32 N          26.1715  -49.6411  -58.2759 N.am      8 UNK        -0.4342 
     33 C          26.5122  -49.3139  -57.0227 C.2       8 UNK         0.5039 
     34 O          26.3325  -48.1961  -56.5319 O.2       8 UNK        -0.5547 
     35 CA         27.2166  -50.4121  -56.2114 C.3       7 UNK         0.0281 
     36 CB         28.7267  -50.3836  -56.4854 C.3       7 UNK        -0.1963 
     37 N          26.9849  -50.2736  -54.7721 N.am      7 UNK        -0.4444 
     38 C          25.8285  -50.5828  -54.1673 C.2       7 UNK         0.5104 
     39 O          24.8460  -51.0189  -54.7701 O.2       7 UNK        -0.5100 
     40 CA         25.7422  -50.4342  -52.6352 C.3       6 UNK         0.0396 
     41 CB         25.7137  -51.8188  -51.9661 C.3       6 UNK        -0.1801 
     42 N          26.8366  -49.6575  -52.0520 N.am      6 UNK        -0.4747 
     43 C          26.9069  -48.3193  -52.0344 C.2       6 UNK         0.5012 
     44 O          26.0186  -47.5870  -52.4694 O.2       6 UNK        -0.5003 
     45 CA         28.1668  -47.6906  -51.3948 C.3       5 UNK         0.0782 
     46 C46        27.8192  -47.2117  -49.9582 C.3       11 UNK        -0.0868 
     47 S47        29.2387  -46.6031  -48.9821 S.3       11 UNK        -0.2515 
     48 C48        29.1317  -44.8020  -49.2202 C.3       11 UNK         0.0199 
     49 N          29.3626  -48.5488  -51.4179 N.am      5 UNK        -0.4607 
     50 C          29.9274  -49.0971  -52.5015 C.2       4 UNK         0.5031 
     51 O          29.4275  -49.0587  -53.6262 O.2       4 UNK        -0.5119 
     52 CA         31.2363  -49.8709  -52.2605 C.3       4 UNK         0.0263 
     53 CB         30.9441  -51.2068  -51.5548 C.3       4 UNK        -0.1967 
     54 N          31.9720  -50.1491  -53.4976 N.am      4 UNK        -0.4237 
     55 C          32.5555  -49.2299  -54.2780 C.2       3 UNK         0.4908 
     56 O          32.5985  -48.0259  -54.0080 O.2       3 UNK        -0.5102 
     57 CA         33.2312  -49.7568  -55.5562 C.3       3 UNK         0.0241 
     58 CB         32.2971  -50.6286  -56.4173 C.3       3 UNK        -0.1971 
     59 N          33.6893  -48.6268  -56.3536 N.am      3 UNK        -0.4139 
     60 C          34.7560  -48.5989  -57.1608 C.2       2 UNK         0.5016 
     61 O          35.4974  -49.5632  -57.3552 O.2       2 UNK        -0.5319 
     62 CA         35.0476  -47.2660  -57.8741 C.3       2 UNK         0.0286 
     63 CB         34.5112  -47.2966  -59.3144 C.3       2 UNK        -0.1963 
     64 N          34.4415  -46.1373  -57.1671 N.am      2 UNK        -0.4790 
     65 C          34.9794  -45.5269  -56.1030 C.2       1 UNK         0.5024 
     66 O          36.1278  -45.7395  -55.7093 O.2       1 UNK        -0.4888 
     67 H67        32.4162  -42.6467  -59.0655 H         1 UNK         0.0892 
     68 H68        31.2991  -42.8754  -57.7216 H         1 UNK         0.0892 
     69 H69        32.1691  -41.3499  -57.8927 H         1 UNK         0.0892 
     70 H70        32.1575  -44.1758  -56.1457 H         1 UNK         0.3107 
     71 H71        33.4317  -45.2070  -54.7306 H         1 UNK         0.0773 
     72 H72        35.4805  -42.9407  -54.9154 H         1 UNK         0.0680 
     73 H73        35.4794  -44.1941  -53.7054 H         1 UNK         0.0680 
     74 H74        33.6083  -43.6429  -51.1534 H         1 UNK         0.0650 
     75 H75        33.5255  -44.8667  -52.3924 H         1 UNK         0.0650 
     76 H76        31.7400  -44.4917  -49.8945 H         1 UNK         0.1397 
     77 H77        27.7864  -44.2186  -51.5294 H         1 UNK         0.1363 
     78 H78        31.1846  -43.5106  -54.0342 H         1 UNK         0.1355 
     79 H79        27.7342  -42.8179  -53.7979 H         1 UNK         0.0707 
     80 H80        29.0132  -43.1622  -54.9317 H         1 UNK         0.0707 
     81 H81        29.7749  -46.0833  -54.6224 H         1 UNK         0.1034 
     82 H82        28.5641  -47.1431  -55.2822 H         1 UNK         0.1034 
     83 H83        29.7413  -44.7038  -56.6742 H         1 UNK         0.0482 
     84 H84        31.0350  -48.0230  -58.5894 H         1 UNK         0.3460 
     85 H85        29.3647  -47.5288  -58.7052 H         1 UNK         0.3460 
     86 H86        27.3726  -46.2094  -57.3955 H         1 UNK         0.2989 
     87 H87        26.2448  -44.2816  -59.4064 H         1 UNK         0.0559 
     88 H88        27.6759  -43.9423  -61.3884 H         1 UNK         0.0848 
     89 H89        26.3438  -45.0028  -61.8098 H         1 UNK         0.0848 
     90 H90        27.9529  -45.6707  -61.5385 H         1 UNK         0.0848 
     91 H91        25.1897  -46.2088  -59.1852 H         1 UNK         0.3144 
     92 H92        24.7070  -48.2699  -58.8118 H         1 UNK         0.0727 
     93 H93        26.0548  -49.9566  -60.9952 H         1 UNK         0.0790 
     94 H94        24.7520  -48.8060  -61.2555 H         1 UNK         0.0790 
     95 H95        24.4599  -50.2492  -60.2990 H         1 UNK         0.0790 
     96 H96        26.3968  -50.5648  -58.6159 H         1 UNK         0.3215 
     97 H97        26.8280  -51.3836  -56.5252 H         1 UNK         0.0863 
     98 H98        29.2501  -51.1450  -55.9070 H         1 UNK         0.0808 
     99 H99        29.1596  -49.4148  -56.2344 H         1 UNK         0.0808 
    100 H100       28.9402  -50.5688  -57.5388 H         1 UNK         0.0808 
    101 H101       27.7374  -49.8575  -54.2304 H         1 UNK         0.3118 
    102 H102       24.7987  -49.9324  -52.4105 H         1 UNK         0.0546 
    103 H103       26.6309  -52.3780  -52.1549 H         1 UNK         0.0828 
    104 H104       24.8841  -52.4186  -52.3432 H         1 UNK         0.0828 
    105 H105       25.5850  -51.7365  -50.8868 H         1 UNK         0.0828 
    106 H106       27.6140  -50.1776  -51.6713 H         1 UNK         0.3005 
    107 H107       28.4100  -46.8185  -52.0037 H         1 UNK         0.1257 
    108 H108       27.3820  -48.0326  -49.3858 H         1 UNK         0.0775 
    109 H109       27.0515  -46.4363  -49.9934 H         1 UNK         0.0775 
    110 H110       28.0990  -44.4665  -49.1132 H         1 UNK         0.0840 
    111 H111       29.6932  -44.3081  -48.4257 H         1 UNK         0.0840 
    112 H112       29.8350  -48.6365  -50.5294 H         1 UNK         0.2987 
    113 H113       31.8763  -49.2618  -51.6185 H         1 UNK         0.0785 
    114 H114       30.4469  -51.0506  -50.5966 H         1 UNK         0.0798 
    115 H115       31.8631  -51.7564  -51.3496 H         1 UNK         0.0798 
    116 H116       30.2975  -51.8475  -52.1563 H         1 UNK         0.0798 
    117 H117       31.9725  -51.1093  -53.8072 H         1 UNK         0.3079 
    118 H118       34.0922  -50.3504  -55.2418 H         1 UNK         0.0794 
    119 H119       32.8244  -51.0309  -57.2825 H         1 UNK         0.0786 
    120 H120       31.4539  -50.0481  -56.7894 H         1 UNK         0.0786 
    121 H121       31.9007  -51.4802  -55.8644 H         1 UNK         0.0786 
    122 H122       33.1427  -47.7795  -56.2282 H         1 UNK         0.3032 
    123 H123       36.1317  -47.1355  -57.9090 H         1 UNK         0.1094 
    124 H124       33.4282  -47.4236  -59.3400 H         1 UNK         0.0794 
    125 H125       34.7536  -46.3764  -59.8463 H         1 UNK         0.0794 
    126 H126       34.9509  -48.1213  -59.8770 H         1 UNK         0.0794 
    127 H127       33.4656  -45.9487  -57.3701 H         1 UNK         0.3016 
@<TRIPOS>BOND
     1    1    2 1    
     2    1   67 1    
     3    1   68 1    
     4    1   69 1    
     5    2    3 2    
     6    2    4 am   BACKBONE|DICT|INTERRES
     7    4    5 1    
     8    4   70 1    
     9    5    6 1    
    10    5   65 1    
    11    5   71 1    
    12    6    7 1    
    13    6   72 1    
    14    6   73 1    
    15    7    8 1    
    16    8    9 1    
    17    8   74 1    
    18    8   75 1    
    19    9   10 ar   
    20    9   14 ar   
    21   10   11 ar   
    22   10   76 1    
    23   11   12 ar   
    24   11   48 1    
    25   12   13 ar   
    26   12   77 1    
    27   13   14 ar   
    28   13   15 1    
    29   14   78 1    
    30   15   16 1    
    31   15   79 1    
    32   15   80 1    
    33   16   17 1    
    34   17   18 1    
    35   17   81 1    
    36   17   82 1    
    37   18   19 1    
    38   18   22 1    
    39   18   83 1    
    40   19   20 am   BACKBONE|DICT|INTERRES
    41   19   21 2    
    42   20   84 1    
    43   20   85 1    
    44   22   23 am   BACKBONE|DICT|INTERRES
    45   22   86 1    
    46   23   24 2    
    47   23   25 1    
    48   25   26 1    
    49   25   27 1    
    50   25   87 1    
    51   26   88 1    
    52   26   89 1    
    53   26   90 1    
    54   27   28 am   BACKBONE|DICT|INTERRES
    55   27   91 1    
    56   28   29 2    
    57   28   30 1    
    58   30   31 1    
    59   30   32 1    
    60   30   92 1    
    61   31   93 1    
    62   31   94 1    
    63   31   95 1    
    64   32   33 am   BACKBONE|DICT|INTERRES
    65   32   96 1    
    66   33   34 2    
    67   33   35 1    
    68   35   36 1    
    69   35   37 1    
    70   35   97 1    
    71   36   98 1    
    72   36   99 1    
    73   36  100 1    
    74   37   38 am   BACKBONE|DICT|INTERRES
    75   37  101 1    
    76   38   39 2    
    77   38   40 1    
    78   40   41 1    
    79   40   42 1    
    80   40  102 1    
    81   41  103 1    
    82   41  104 1    
    83   41  105 1    
    84   42   43 am   BACKBONE|DICT|INTERRES
    85   42  106 1    
    86   43   44 2    
    87   43   45 1    
    88   45   46 1    
    89   45   49 1    
    90   45  107 1    
    91   46   47 1    
    92   46  108 1    
    93   46  109 1    
    94   47   48 1    
    95   48  110 1    
    96   48  111 1    
    97   49   50 am   BACKBONE|DICT|INTERRES
    98   49  112 1    
    99   50   51 2    
   100   50   52 1    
   101   52   53 1    
   102   52   54 1    
   103   52  113 1    
   104   53  114 1    
   105   53  115 1    
   106   53  116 1    
   107   54   55 am   BACKBONE|DICT|INTERRES
   108   54  117 1    
   109   55   56 2    
   110   55   57 1    
   111   57   58 1    
   112   57   59 1    
   113   57  118 1    
   114   58  119 1    
   115   58  120 1    
   116   58  121 1    
   117   59   60 am   BACKBONE|DICT|INTERRES
   118   59  122 1    
   119   60   61 2    
   120   60   62 1    
   121   62   63 1    
   122   62   64 1    
   123   62  123 1    
   124   63  124 1    
   125   63  125 1    
   126   63  126 1    
   127   64   65 am   BACKBONE|DICT|INTERRES
   128   64  127 1    
   129   65   66 2    
@<TRIPOS>SUBSTRUCTURE
     1 UNK         1 GROUP             0       ****    0 ROOT    
