@<TRIPOS>MOLECULE
3R134
127   129    1
SMALL
USER_CHARGES


@<TRIPOS>ATOM
      1 CA         33.2351  -45.0491  -50.6545 C.3       0 UNK        -0.1968 
      2 C          33.6705  -45.6965  -51.9598 C.2       0 UNK         0.4852 
      3 O          32.8893  -46.4383  -52.5573 O.2       0 UNK        -0.5359 
      4 N          34.9166  -45.4361  -52.3900 N.am      1 UNK        -0.4300 
      5 CA         35.5226  -45.8978  -53.6507 C.3       1 UNK         0.0863 
      6 C6         34.9122  -45.1900  -54.8918 C.3       11 UNK        -0.0953 
      7 S7         35.2958  -43.4095  -55.0099 S.3       11 UNK        -0.2369 
      8 C8         33.9042  -42.5893  -54.1502 C.3       11 UNK         0.0226 
      9 C9         32.5011  -42.9957  -54.6037 C.ar      11 UNK        -0.0699 
     10 C10        31.4806  -43.0627  -53.6505 C.ar      11 UNK        -0.0804 
     11 C11        30.1858  -43.4493  -54.0069 C.ar      11 UNK        -0.0871 
     12 C12        29.9097  -43.7729  -55.3373 C.ar      11 UNK        -0.1008 
     13 C13        30.9113  -43.6858  -56.3095 C.ar      11 UNK        -0.0735 
     14 C14        32.2007  -43.2847  -55.9409 C.ar      11 UNK        -0.0945 
     15 C15        30.6041  -44.0583  -57.7508 C.3       11 UNK         0.0169 
     16 S16        29.8133  -42.6781  -58.6366 S.3       11 UNK        -0.2669 
     17 C17        28.3260  -43.5002  -59.3002 C.3       11 UNK        -0.0850 
     18 CA         27.1433  -43.4945  -58.2879 C.3       10 UNK         0.0855 
     19 C          26.1352  -42.3378  -58.5563 C.2       10 UNK         0.5543 
     20 N          24.8634  -42.6131  -58.8197 N.am      10 UNK        -0.7343 
     21 O          26.5109  -41.1692  -58.5174 O.2       10 UNK        -0.5027 
     22 N          26.5369  -44.8303  -58.1874 N.am      10 UNK        -0.4495 
     23 C          25.8885  -45.3182  -57.1251 C.2       10 UNK         0.4903 
     24 O          25.7380  -44.7005  -56.0713 O.2       10 UNK        -0.4860 
     25 CA         25.3237  -46.7457  -57.2518 C.3       9 UNK         0.0227 
     26 CB         24.0188  -46.7651  -58.0722 C.3       9 UNK        -0.1964 
     27 N          26.3007  -47.7292  -57.7429 N.am      9 UNK        -0.4231 
     28 C          26.8746  -47.8209  -58.9525 C.2       9 UNK         0.5014 
     29 O          26.5916  -47.0825  -59.8980 O.2       9 UNK        -0.5270 
     30 CA         27.9782  -48.8750  -59.1449 C.3       8 UNK         0.0284 
     31 CB         29.3112  -48.1924  -59.5043 C.3       8 UNK        -0.1977 
     32 N          28.1871  -49.7039  -57.9523 N.am      8 UNK        -0.4342 
     33 C          28.0615  -51.0363  -57.9134 C.2       8 UNK         0.5039 
     34 O          27.7002  -51.7183  -58.8737 O.2       8 UNK        -0.5547 
     35 CA         28.4151  -51.7464  -56.5949 C.3       7 UNK         0.0281 
     36 CB         29.9122  -52.0930  -56.5524 C.3       7 UNK        -0.1963 
     37 N          28.0503  -51.0087  -55.3819 N.am      7 UNK        -0.4444 
     38 C          26.7885  -50.8422  -54.9571 C.2       7 UNK         0.5104 
     39 O          25.7970  -51.1714  -55.6078 O.2       7 UNK        -0.5100 
     40 CA         26.5977  -50.2201  -53.5662 C.3       6 UNK         0.0396 
     41 CB         26.9775  -51.2239  -52.4646 C.3       6 UNK        -0.1801 
     42 N          27.4054  -49.0124  -53.4230 N.am      6 UNK        -0.4747 
     43 C          26.9505  -47.7616  -53.5901 C.2       6 UNK         0.5012 
     44 O          25.7664  -47.4836  -53.7750 O.2       6 UNK        -0.5003 
     45 CA         27.9961  -46.6250  -53.5401 C.3       5 UNK         0.0782 
     46 C46        28.0070  -46.0004  -52.1196 C.3       11 UNK        -0.0868 
     47 S47        29.3837  -44.8556  -51.7700 S.3       11 UNK        -0.2515 
     48 C48        29.0936  -43.4995  -52.9482 C.3       11 UNK         0.0199 
     49 N          29.3280  -47.0610  -53.9724 N.am      5 UNK        -0.4607 
     50 C          29.6276  -47.5878  -55.1674 C.2       4 UNK         0.5031 
     51 O          28.8157  -47.7208  -56.0797 O.2       4 UNK        -0.5119 
     52 CA         31.0498  -48.1330  -55.3545 C.3       4 UNK         0.0263 
     53 CB         31.9227  -47.0858  -56.0477 C.3       4 UNK        -0.1967 
     54 N          31.6641  -48.5484  -54.0897 N.am      4 UNK        -0.4237 
     55 C          31.2218  -49.5677  -53.3387 C.2       3 UNK         0.4908 
     56 O          30.2631  -50.2756  -53.6615 O.2       3 UNK        -0.5102 
     57 CA         31.9133  -49.7799  -51.9792 C.3       3 UNK         0.0241 
     58 CB         31.6223  -51.1674  -51.3673 C.3       3 UNK        -0.1971 
     59 N          33.3536  -49.4915  -52.0031 N.am      3 UNK        -0.4139 
     60 C          34.3155  -50.1536  -52.6645 C.2       2 UNK         0.5016 
     61 O          34.1175  -51.1459  -53.3682 O.2       2 UNK        -0.5319 
     62 CA         35.7449  -49.5959  -52.4909 C.3       2 UNK         0.0286 
     63 CB         36.7899  -50.3080  -53.3782 C.3       2 UNK        -0.1963 
     64 N          35.8055  -48.1359  -52.6646 N.am      2 UNK        -0.4790 
     65 C          35.5057  -47.4434  -53.7768 C.2       1 UNK         0.5024 
     66 O          35.2065  -47.9745  -54.8468 O.2       1 UNK        -0.4888 
     67 H67        33.0049  -45.8153  -49.9151 H         1 UNK         0.0892 
     68 H68        32.3374  -44.4536  -50.8153 H         1 UNK         0.0892 
     69 H69        34.0054  -44.3972  -50.2432 H         1 UNK         0.0892 
     70 H70        35.5079  -44.8356  -51.8322 H         1 UNK         0.3107 
     71 H71        36.5785  -45.6269  -53.6037 H         1 UNK         0.0773 
     72 H72        33.8367  -45.3322  -54.9112 H         1 UNK         0.0680 
     73 H73        35.2896  -45.6325  -55.8152 H         1 UNK         0.0680 
     74 H74        34.0198  -42.7730  -53.0815 H         1 UNK         0.0650 
     75 H75        34.0076  -41.5122  -54.2849 H         1 UNK         0.0650 
     76 H76        31.6931  -42.8209  -52.6183 H         1 UNK         0.1397 
     77 H77        28.9155  -44.0897  -55.6191 H         1 UNK         0.1363 
     78 H78        32.9753  -43.2206  -56.6922 H         1 UNK         0.1355 
     79 H79        29.9626  -44.9412  -57.7580 H         1 UNK         0.0707 
     80 H80        31.5167  -44.3428  -58.2769 H         1 UNK         0.0707 
     81 H81        28.5999  -44.5170  -59.5877 H         1 UNK         0.1034 
     82 H82        28.0524  -43.0156  -60.2397 H         1 UNK         0.1034 
     83 H83        27.5461  -43.2777  -57.2977 H         1 UNK         0.0482 
     84 H84        24.5457  -43.5680  -58.8520 H         1 UNK         0.3460 
     85 H85        24.2177  -41.8577  -58.9880 H         1 UNK         0.3460 
     86 H86        26.5952  -45.4283  -59.0080 H         1 UNK         0.2989 
     87 H87        25.0672  -47.0720  -56.2444 H         1 UNK         0.0559 
     88 H88        23.5881  -47.7658  -58.1047 H         1 UNK         0.0848 
     89 H89        24.1691  -46.4328  -59.0994 H         1 UNK         0.0848 
     90 H90        23.2721  -46.1066  -57.6265 H         1 UNK         0.0848 
     91 H91        26.6610  -48.3496  -57.0322 H         1 UNK         0.3144 
     92 H92        27.6721  -49.4909  -59.9927 H         1 UNK         0.0727 
     93 H93        30.0989  -48.9266  -59.6736 H         1 UNK         0.0790 
     94 H94        29.6450  -47.5187  -58.7143 H         1 UNK         0.0790 
     95 H95        29.2183  -47.6030  -60.4174 H         1 UNK         0.0790 
     96 H96        28.4906  -49.2011  -57.1202 H         1 UNK         0.3215 
     97 H97        27.8606  -52.6877  -56.5820 H         1 UNK         0.0863 
     98 H98        30.1621  -52.6670  -55.6598 H         1 UNK         0.0808 
     99 H99        30.5370  -51.2007  -56.5598 H         1 UNK         0.0808 
    100 H100       30.1973  -52.6963  -57.4155 H         1 UNK         0.0808 
    101 H101       28.8161  -50.7306  -54.7716 H         1 UNK         0.3118 
    102 H102       25.5387  -49.9817  -53.4461 H         1 UNK         0.0546 
    103 H103       26.3896  -52.1386  -52.5517 H         1 UNK         0.0828 
    104 H104       26.7881  -50.8115  -51.4735 H         1 UNK         0.0828 
    105 H105       28.0297  -51.5071  -52.5117 H         1 UNK         0.0828 
    106 H106       28.4008  -49.1494  -53.2982 H         1 UNK         0.3005 
    107 H107       27.6656  -45.8665  -54.2526 H         1 UNK         0.1257 
    108 H108       28.0657  -46.7840  -51.3611 H         1 UNK         0.0775 
    109 H109       27.0680  -45.4756  -51.9325 H         1 UNK         0.0775 
    110 H110       28.1068  -43.5905  -53.4043 H         1 UNK         0.0840 
    111 H111       29.0853  -42.5561  -52.4004 H         1 UNK         0.0840 
    112 H112       30.0721  -46.9405  -53.2989 H         1 UNK         0.2987 
    113 H113       30.9920  -49.0080  -56.0026 H         1 UNK         0.0785 
    114 H114       31.9264  -46.1584  -55.4785 H         1 UNK         0.0798 
    115 H115       31.5417  -46.8573  -57.0432 H         1 UNK         0.0798 
    116 H116       32.9506  -47.4274  -56.1635 H         1 UNK         0.0798 
    117 H117       32.3814  -47.9384  -53.7045 H         1 UNK         0.3079 
    118 H118       31.4755  -49.0356  -51.3124 H         1 UNK         0.0794 
    119 H119       31.9591  -51.9760  -52.0166 H         1 UNK         0.0786 
    120 H120       30.5523  -51.3072  -51.2077 H         1 UNK         0.0786 
    121 H121       32.1107  -51.2861  -50.4002 H         1 UNK         0.0786 
    122 H122       33.6280  -48.6541  -51.5084 H         1 UNK         0.3032 
    123 H123       36.0170  -49.7952  -51.4528 H         1 UNK         0.1094 
    124 H124       36.5571  -50.2157  -54.4393 H         1 UNK         0.0794 
    125 H125       37.7893  -49.9041  -53.2171 H         1 UNK         0.0794 
    126 H126       36.8316  -51.3738  -53.1497 H         1 UNK         0.0794 
    127 H127       36.0390  -47.6051  -51.8363 H         1 UNK         0.3016 
@<TRIPOS>BOND
     1    1    2 1    
     2    1   67 1    
     3    1   68 1    
     4    1   69 1    
     5    2    3 2    
     6    2    4 am   BACKBONE|DICT|INTERRES
     7    4    5 1    
     8    4   70 1    
     9    5    6 1    
    10    5   65 1    
    11    5   71 1    
    12    6    7 1    
    13    6   72 1    
    14    6   73 1    
    15    7    8 1    
    16    8    9 1    
    17    8   74 1    
    18    8   75 1    
    19    9   10 ar   
    20    9   14 ar   
    21   10   11 ar   
    22   10   76 1    
    23   11   12 ar   
    24   11   48 1    
    25   12   13 ar   
    26   12   77 1    
    27   13   14 ar   
    28   13   15 1    
    29   14   78 1    
    30   15   16 1    
    31   15   79 1    
    32   15   80 1    
    33   16   17 1    
    34   17   18 1    
    35   17   81 1    
    36   17   82 1    
    37   18   19 1    
    38   18   22 1    
    39   18   83 1    
    40   19   20 am   BACKBONE|DICT|INTERRES
    41   19   21 2    
    42   20   84 1    
    43   20   85 1    
    44   22   23 am   BACKBONE|DICT|INTERRES
    45   22   86 1    
    46   23   24 2    
    47   23   25 1    
    48   25   26 1    
    49   25   27 1    
    50   25   87 1    
    51   26   88 1    
    52   26   89 1    
    53   26   90 1    
    54   27   28 am   BACKBONE|DICT|INTERRES
    55   27   91 1    
    56   28   29 2    
    57   28   30 1    
    58   30   31 1    
    59   30   32 1    
    60   30   92 1    
    61   31   93 1    
    62   31   94 1    
    63   31   95 1    
    64   32   33 am   BACKBONE|DICT|INTERRES
    65   32   96 1    
    66   33   34 2    
    67   33   35 1    
    68   35   36 1    
    69   35   37 1    
    70   35   97 1    
    71   36   98 1    
    72   36   99 1    
    73   36  100 1    
    74   37   38 am   BACKBONE|DICT|INTERRES
    75   37  101 1    
    76   38   39 2    
    77   38   40 1    
    78   40   41 1    
    79   40   42 1    
    80   40  102 1    
    81   41  103 1    
    82   41  104 1    
    83   41  105 1    
    84   42   43 am   BACKBONE|DICT|INTERRES
    85   42  106 1    
    86   43   44 2    
    87   43   45 1    
    88   45   46 1    
    89   45   49 1    
    90   45  107 1    
    91   46   47 1    
    92   46  108 1    
    93   46  109 1    
    94   47   48 1    
    95   48  110 1    
    96   48  111 1    
    97   49   50 am   BACKBONE|DICT|INTERRES
    98   49  112 1    
    99   50   51 2    
   100   50   52 1    
   101   52   53 1    
   102   52   54 1    
   103   52  113 1    
   104   53  114 1    
   105   53  115 1    
   106   53  116 1    
   107   54   55 am   BACKBONE|DICT|INTERRES
   108   54  117 1    
   109   55   56 2    
   110   55   57 1    
   111   57   58 1    
   112   57   59 1    
   113   57  118 1    
   114   58  119 1    
   115   58  120 1    
   116   58  121 1    
   117   59   60 am   BACKBONE|DICT|INTERRES
   118   59  122 1    
   119   60   61 2    
   120   60   62 1    
   121   62   63 1    
   122   62   64 1    
   123   62  123 1    
   124   63  124 1    
   125   63  125 1    
   126   63  126 1    
   127   64   65 am   BACKBONE|DICT|INTERRES
   128   64  127 1    
   129   65   66 2    
@<TRIPOS>SUBSTRUCTURE
     1 UNK         1 GROUP             0       ****    0 ROOT    
