@<TRIPOS>MOLECULE
3R134
127   129    1
SMALL
USER_CHARGES


@<TRIPOS>ATOM
      1 CA         38.0301  -44.8470  -51.7623 C.3       0 UNK        -0.1968 
      2 C          37.1636  -45.6043  -52.7580 C.2       0 UNK         0.4852 
      3 O          37.6667  -46.4860  -53.4556 O.2       0 UNK        -0.5359 
      4 N          35.8704  -45.2602  -52.8310 N.am      1 UNK        -0.4300 
      5 CA         34.8732  -45.8830  -53.7099 C.3       1 UNK         0.0863 
      6 C6         33.5374  -45.1053  -53.6979 C.3       11 UNK        -0.0953 
      7 S7         33.6939  -43.4434  -54.4318 S.3       11 UNK        -0.2369 
      8 C8         32.2835  -43.4260  -55.5980 C.3       11 UNK         0.0226 
      9 C9         30.8843  -43.4460  -54.9716 C.ar      11 UNK        -0.0699 
     10 C10        30.6645  -43.4515  -53.5885 C.ar      11 UNK        -0.0804 
     11 C11        29.3720  -43.5166  -53.0654 C.ar      11 UNK        -0.0871 
     12 C12        28.2755  -43.5019  -53.9310 C.ar      11 UNK        -0.1008 
     13 C13        28.4716  -43.4714  -55.3144 C.ar      11 UNK        -0.0735 
     14 C14        29.7761  -43.4662  -55.8237 C.ar      11 UNK        -0.0945 
     15 C15        27.2786  -43.4790  -56.2595 C.3       11 UNK         0.0169 
     16 S16        27.3341  -42.0742  -57.4203 S.3       11 UNK        -0.2669 
     17 C17        26.1399  -42.5909  -58.7040 C.3       11 UNK        -0.0850 
     18 CA         26.7901  -43.3229  -59.9104 C.3       10 UNK         0.0855 
     19 C          27.7154  -42.3968  -60.7552 C.2       10 UNK         0.5543 
     20 N          28.9937  -42.7107  -60.9277 N.am      10 UNK        -0.7343 
     21 O          27.2573  -41.3823  -61.2753 O.2       10 UNK        -0.5027 
     22 N          27.3800  -44.6009  -59.4871 N.am      10 UNK        -0.4495 
     23 C          27.6086  -45.6598  -60.2715 C.2       10 UNK         0.4903 
     24 O          27.4269  -45.6710  -61.4890 O.2       10 UNK        -0.4860 
     25 CA         28.0990  -46.9382  -59.5653 C.3       9 UNK         0.0227 
     26 CB         29.6343  -46.9563  -59.4976 C.3       9 UNK        -0.1964 
     27 N          27.5543  -47.1323  -58.2141 N.am      9 UNK        -0.4231 
     28 C          26.2531  -47.2236  -57.8990 C.2       9 UNK         0.5014 
     29 O          25.3344  -47.1139  -58.7136 O.2       9 UNK        -0.5270 
     30 CA         25.9464  -47.5129  -56.4183 C.3       8 UNK         0.0284 
     31 CB         24.4487  -47.3869  -56.0696 C.3       8 UNK        -0.1977 
     32 N          26.4723  -48.8179  -56.0039 N.am      8 UNK        -0.4342 
     33 C          26.1911  -50.0256  -56.5192 C.2       8 UNK         0.5039 
     34 O          25.3624  -50.2249  -57.4081 O.2       8 UNK        -0.5547 
     35 CA         26.9807  -51.2276  -55.9695 C.3       7 UNK         0.0281 
     36 CB         28.0164  -51.6950  -57.0061 C.3       7 UNK        -0.1963 
     37 N          27.6655  -50.9437  -54.7056 N.am      7 UNK        -0.4444 
     38 C          27.0698  -50.9143  -53.5061 C.2       7 UNK         0.5104 
     39 O          25.8820  -51.1820  -53.3233 O.2       7 UNK        -0.5100 
     40 CA         27.9403  -50.4802  -52.3122 C.3       6 UNK         0.0396 
     41 CB         28.8022  -51.6502  -51.8143 C.3       6 UNK        -0.1801 
     42 N          28.7946  -49.3219  -52.6003 N.am      6 UNK        -0.4747 
     43 C          28.3422  -48.1065  -52.9501 C.2       6 UNK         0.5012 
     44 O          27.1517  -47.8384  -53.1088 O.2       6 UNK        -0.5003 
     45 CA         29.4008  -47.0210  -53.2152 C.3       5 UNK         0.0782 
     46 C46        29.9399  -46.3987  -51.8999 C.3       11 UNK        -0.0868 
     47 S47        28.6927  -45.3384  -51.0782 S.3       11 UNK        -0.2515 
     48 C48        29.1755  -43.6461  -51.5624 C.3       11 UNK         0.0199 
     49 N          30.4628  -47.5614  -54.0670 N.am      5 UNK        -0.4607 
     50 C          30.3312  -47.7354  -55.3916 C.2       4 UNK         0.5031 
     51 O          29.3585  -47.3437  -56.0380 O.2       4 UNK        -0.5119 
     52 CA         31.4381  -48.5131  -56.1256 C.3       4 UNK         0.0263 
     53 CB         32.4373  -47.5563  -56.7945 C.3       4 UNK        -0.1967 
     54 N          32.1485  -49.4654  -55.2658 N.am      4 UNK        -0.4237 
     55 C          31.5913  -50.5873  -54.7833 C.2       3 UNK         0.4908 
     56 O          30.4428  -50.9384  -55.0447 O.2       3 UNK        -0.5102 
     57 CA         32.4180  -51.4453  -53.8097 C.3       3 UNK         0.0241 
     58 CB         33.2106  -52.5128  -54.5797 C.3       3 UNK        -0.1971 
     59 N          33.3304  -50.6788  -52.9604 N.am      3 UNK        -0.4139 
     60 C          32.9865  -49.6711  -52.1464 C.2       2 UNK         0.5016 
     61 O          31.8287  -49.2726  -51.9971 O.2       2 UNK        -0.5319 
     62 CA         34.1377  -48.9328  -51.4354 C.3       2 UNK         0.0286 
     63 CB         35.4455  -49.7514  -51.3440 C.3       2 UNK        -0.1963 
     64 N          34.4106  -47.6242  -52.0449 N.am      2 UNK        -0.4790 
     65 C          34.6219  -47.3580  -53.3457 C.2       1 UNK         0.5024 
     66 O          34.6134  -48.2057  -54.2401 O.2       1 UNK        -0.4888 
     67 H67        37.4633  -44.0909  -51.2192 H         1 UNK         0.0892 
     68 H68        38.8489  -44.3487  -52.2807 H         1 UNK         0.0892 
     69 H69        38.4568  -45.5376  -51.0354 H         1 UNK         0.0892 
     70 H70        35.5291  -44.5049  -52.2536 H         1 UNK         0.3107 
     71 H71        35.2716  -45.8685  -54.7270 H         1 UNK         0.0773 
     72 H72        32.7603  -45.6515  -54.2342 H         1 UNK         0.0680 
     73 H73        33.1724  -44.9976  -52.6753 H         1 UNK         0.0680 
     74 H74        32.3710  -42.5292  -56.2127 H         1 UNK         0.0650 
     75 H75        32.3832  -44.2747  -56.2765 H         1 UNK         0.0650 
     76 H76        31.4932  -43.4319  -52.8985 H         1 UNK         0.1397 
     77 H77        27.2738  -43.5429  -53.5250 H         1 UNK         0.1363 
     78 H78        29.9282  -43.4622  -56.8945 H         1 UNK         0.1355 
     79 H79        27.2780  -44.4242  -56.7989 H         1 UNK         0.0707 
     80 H80        26.3393  -43.4388  -55.7056 H         1 UNK         0.0707 
     81 H81        25.6067  -41.7027  -59.0486 H         1 UNK         0.1034 
     82 H82        25.3753  -43.2249  -58.2518 H         1 UNK         0.1034 
     83 H83        25.9710  -43.5792  -60.5852 H         1 UNK         0.0482 
     84 H84        29.5818  -42.1078  -61.4810 H         1 UNK         0.3460 
     85 H85        29.3710  -43.5467  -60.5132 H         1 UNK         0.3460 
     86 H86        27.5998  -44.6791  -58.5074 H         1 UNK         0.2989 
     87 H87        27.7738  -47.7883  -60.1682 H         1 UNK         0.0559 
     88 H88        30.0187  -46.1511  -58.8703 H         1 UNK         0.0848 
     89 H89        30.0723  -46.8368  -60.4895 H         1 UNK         0.0848 
     90 H90        30.0023  -47.9000  -59.0948 H         1 UNK         0.0848 
     91 H91        28.2329  -47.2378  -57.4594 H         1 UNK         0.3144 
     92 H92        26.4827  -46.7645  -55.8322 H         1 UNK         0.0727 
     93 H93        24.2779  -47.5479  -55.0050 H         1 UNK         0.0790 
     94 H94        23.8397  -48.1053  -56.6193 H         1 UNK         0.0790 
     95 H95        24.0757  -46.3912  -56.3122 H         1 UNK         0.0790 
     96 H96        27.1569  -48.7832  -55.2607 H         1 UNK         0.3215 
     97 H97        26.2700  -52.0408  -55.8060 H         1 UNK         0.0863 
     98 H98        28.5677  -52.5665  -56.6524 H         1 UNK         0.0808 
     99 H99        28.7398  -50.9108  -57.2337 H         1 UNK         0.0808 
    100 H100       27.5335  -51.9749  -57.9433 H         1 UNK         0.0808 
    101 H101       28.6719  -50.7859  -54.7605 H         1 UNK         0.3118 
    102 H102       27.2686  -50.1895  -51.5019 H         1 UNK         0.0546 
    103 H103       28.1754  -52.4824  -51.4911 H         1 UNK         0.0828 
    104 H104       29.4198  -51.3599  -50.9642 H         1 UNK         0.0828 
    105 H105       29.4598  -52.0277  -52.5965 H         1 UNK         0.0828 
    106 H106       29.7951  -49.4464  -52.4819 H         1 UNK         0.3005 
    107 H107       28.9062  -46.2276  -53.7795 H         1 UNK         0.1257 
    108 H108       30.8334  -45.8070  -52.0972 H         1 UNK         0.0775 
    109 H109       30.2553  -47.1740  -51.1993 H         1 UNK         0.0775 
    110 H110       28.4044  -42.9480  -51.2336 H         1 UNK         0.0840 
    111 H111       30.0844  -43.3694  -51.0257 H         1 UNK         0.0840 
    112 H112       31.2487  -47.9827  -53.5876 H         1 UNK         0.2987 
    113 H113       30.9480  -49.0834  -56.9178 H         1 UNK         0.0785 
    114 H114       31.9243  -46.8310  -57.4267 H         1 UNK         0.0798 
    115 H115       33.1370  -48.0998  -57.4294 H         1 UNK         0.0798 
    116 H116       33.0191  -46.9951  -56.0665 H         1 UNK         0.0798 
    117 H117       33.0917  -49.2167  -54.9793 H         1 UNK         0.3079 
    118 H118       31.7180  -51.9558  -53.1472 H         1 UNK         0.0794 
    119 H119       33.9591  -52.0657  -55.2353 H         1 UNK         0.0786 
    120 H120       32.5487  -53.1156  -55.2036 H         1 UNK         0.0786 
    121 H121       33.7220  -53.1955  -53.9008 H         1 UNK         0.0786 
    122 H122       34.3129  -50.8951  -53.0456 H         1 UNK         0.3032 
    123 H123       33.7901  -48.7464  -50.4176 H         1 UNK         0.1094 
    124 H124       36.1761  -49.2429  -50.7146 H         1 UNK         0.0794 
    125 H125       35.2702  -50.7312  -50.8971 H         1 UNK         0.0794 
    126 H126       35.9105  -49.9044  -52.3186 H         1 UNK         0.0794 
    127 H127       34.4218  -46.8440  -51.4029 H         1 UNK         0.3016 
@<TRIPOS>BOND
     1    1    2 1    
     2    1   67 1    
     3    1   68 1    
     4    1   69 1    
     5    2    3 2    
     6    2    4 am   BACKBONE|DICT|INTERRES
     7    4    5 1    
     8    4   70 1    
     9    5    6 1    
    10    5   65 1    
    11    5   71 1    
    12    6    7 1    
    13    6   72 1    
    14    6   73 1    
    15    7    8 1    
    16    8    9 1    
    17    8   74 1    
    18    8   75 1    
    19    9   10 ar   
    20    9   14 ar   
    21   10   11 ar   
    22   10   76 1    
    23   11   12 ar   
    24   11   48 1    
    25   12   13 ar   
    26   12   77 1    
    27   13   14 ar   
    28   13   15 1    
    29   14   78 1    
    30   15   16 1    
    31   15   79 1    
    32   15   80 1    
    33   16   17 1    
    34   17   18 1    
    35   17   81 1    
    36   17   82 1    
    37   18   19 1    
    38   18   22 1    
    39   18   83 1    
    40   19   20 am   BACKBONE|DICT|INTERRES
    41   19   21 2    
    42   20   84 1    
    43   20   85 1    
    44   22   23 am   BACKBONE|DICT|INTERRES
    45   22   86 1    
    46   23   24 2    
    47   23   25 1    
    48   25   26 1    
    49   25   27 1    
    50   25   87 1    
    51   26   88 1    
    52   26   89 1    
    53   26   90 1    
    54   27   28 am   BACKBONE|DICT|INTERRES
    55   27   91 1    
    56   28   29 2    
    57   28   30 1    
    58   30   31 1    
    59   30   32 1    
    60   30   92 1    
    61   31   93 1    
    62   31   94 1    
    63   31   95 1    
    64   32   33 am   BACKBONE|DICT|INTERRES
    65   32   96 1    
    66   33   34 2    
    67   33   35 1    
    68   35   36 1    
    69   35   37 1    
    70   35   97 1    
    71   36   98 1    
    72   36   99 1    
    73   36  100 1    
    74   37   38 am   BACKBONE|DICT|INTERRES
    75   37  101 1    
    76   38   39 2    
    77   38   40 1    
    78   40   41 1    
    79   40   42 1    
    80   40  102 1    
    81   41  103 1    
    82   41  104 1    
    83   41  105 1    
    84   42   43 am   BACKBONE|DICT|INTERRES
    85   42  106 1    
    86   43   44 2    
    87   43   45 1    
    88   45   46 1    
    89   45   49 1    
    90   45  107 1    
    91   46   47 1    
    92   46  108 1    
    93   46  109 1    
    94   47   48 1    
    95   48  110 1    
    96   48  111 1    
    97   49   50 am   BACKBONE|DICT|INTERRES
    98   49  112 1    
    99   50   51 2    
   100   50   52 1    
   101   52   53 1    
   102   52   54 1    
   103   52  113 1    
   104   53  114 1    
   105   53  115 1    
   106   53  116 1    
   107   54   55 am   BACKBONE|DICT|INTERRES
   108   54  117 1    
   109   55   56 2    
   110   55   57 1    
   111   57   58 1    
   112   57   59 1    
   113   57  118 1    
   114   58  119 1    
   115   58  120 1    
   116   58  121 1    
   117   59   60 am   BACKBONE|DICT|INTERRES
   118   59  122 1    
   119   60   61 2    
   120   60   62 1    
   121   62   63 1    
   122   62   64 1    
   123   62  123 1    
   124   63  124 1    
   125   63  125 1    
   126   63  126 1    
   127   64   65 am   BACKBONE|DICT|INTERRES
   128   64  127 1    
   129   65   66 2    
@<TRIPOS>SUBSTRUCTURE
     1 UNK         1 GROUP             0       ****    0 ROOT    
