@<TRIPOS>MOLECULE
3R134
127   129    1
SMALL
USER_CHARGES


@<TRIPOS>ATOM
      1 CA         34.7117  -46.4197  -58.9311 C.3       0 UNK        -0.1968 
      2 C          34.3506  -46.9938  -57.5692 C.2       0 UNK         0.4852 
      3 O          34.0771  -48.1901  -57.4668 O.2       0 UNK        -0.5359 
      4 N          34.3353  -46.1465  -56.5309 N.am      1 UNK        -0.4300 
      5 CA         34.0429  -46.5064  -55.1401 C.3       1 UNK         0.0863 
      6 C6         33.9024  -45.2351  -54.2680 C.3       11 UNK        -0.0953 
      7 S7         33.1881  -45.5505  -52.6196 S.3       11 UNK        -0.2369 
      8 C8         32.6892  -43.8727  -52.1221 C.3       11 UNK         0.0226 
      9 C9         31.3308  -43.4904  -52.6920 C.ar      11 UNK        -0.0699 
     10 C10        30.1645  -43.8241  -51.9985 C.ar      11 UNK        -0.0804 
     11 C11        28.9099  -43.4754  -52.5079 C.ar      11 UNK        -0.0871 
     12 C12        28.8295  -42.7640  -53.7100 C.ar      11 UNK        -0.1008 
     13 C13        29.9889  -42.4235  -54.4147 C.ar      11 UNK        -0.0735 
     14 C14        31.2359  -42.7893  -53.8979 C.ar      11 UNK        -0.0945 
     15 C15        29.9087  -41.6289  -55.7132 C.3       11 UNK         0.0169 
     16 S16        29.2906  -42.6237  -57.1123 S.3       11 UNK        -0.2669 
     17 C17        27.4872  -42.3412  -57.0135 C.3       11 UNK        -0.0850 
     18 CA         26.7001  -43.6391  -56.6729 C.3       10 UNK         0.0855 
     19 C          25.2445  -43.3670  -56.1827 C.2       10 UNK         0.5543 
     20 N          24.2632  -44.2048  -56.4997 N.am      10 UNK        -0.7343 
     21 O          25.0039  -42.3993  -55.4655 O.2       10 UNK        -0.5027 
     22 N          26.8066  -44.6866  -57.7011 N.am      10 UNK        -0.4495 
     23 C          26.3605  -44.6106  -58.9624 C.2       10 UNK         0.4903 
     24 O          25.9043  -43.5879  -59.4742 O.2       10 UNK        -0.4860 
     25 CA         26.3792  -45.9055  -59.7936 C.3       9 UNK         0.0227 
     26 CB         27.5847  -45.9329  -60.7464 C.3       9 UNK        -0.1964 
     27 N          26.3505  -47.1341  -58.9904 N.am      9 UNK        -0.4231 
     28 C          25.2882  -47.5373  -58.2697 C.2       9 UNK         0.5014 
     29 O          24.2678  -46.8561  -58.1501 O.2       9 UNK        -0.5270 
     30 CA         25.3335  -48.9109  -57.5720 C.3       8 UNK         0.0284 
     31 CB         24.1779  -49.8160  -58.0408 C.3       8 UNK        -0.1977 
     32 N          26.6066  -49.6019  -57.7639 N.am      8 UNK        -0.4342 
     33 C          27.1770  -50.4488  -56.9031 C.2       8 UNK         0.5039 
     34 O          26.6464  -50.8474  -55.8659 O.2       8 UNK        -0.5547 
     35 CA         28.6138  -50.8866  -57.2372 C.3       7 UNK         0.0281 
     36 CB         28.7155  -51.6007  -58.6015 C.3       7 UNK        -0.1963 
     37 N          29.5556  -49.7655  -57.1227 N.am      7 UNK        -0.4444 
     38 C          29.6033  -48.6389  -57.8504 C.2       7 UNK         0.5104 
     39 O          28.9327  -48.4360  -58.8666 O.2       7 UNK        -0.5100 
     40 CA         30.4728  -47.5198  -57.2511 C.3       6 UNK         0.0396 
     41 CB         30.4693  -46.2198  -58.0777 C.3       6 UNK        -0.1801 
     42 N          30.1019  -47.2417  -55.8591 N.am      6 UNK        -0.4747 
     43 C          28.8916  -46.9213  -55.3761 C.2       6 UNK         0.5012 
     44 O          27.8865  -46.7867  -56.0768 O.2       6 UNK        -0.5003 
     45 CA         28.7965  -46.7544  -53.8441 C.3       5 UNK         0.0782 
     46 C46        27.4314  -46.1693  -53.3951 C.3       11 UNK        -0.0868 
     47 S47        27.4427  -45.6809  -51.6379 S.3       11 UNK        -0.2515 
     48 C48        27.6425  -43.8706  -51.7597 C.3       11 UNK         0.0199 
     49 N          29.0910  -48.0036  -53.1299 N.am      5 UNK        -0.4607 
     50 C          30.2934  -48.5691  -52.9873 C.2       4 UNK         0.5031 
     51 O          31.3234  -48.1617  -53.5346 O.2       4 UNK        -0.5119 
     52 CA         30.3664  -49.8106  -52.0965 C.3       4 UNK         0.0263 
     53 CB         30.0808  -51.0855  -52.9124 C.3       4 UNK        -0.1967 
     54 N          31.7165  -49.8360  -51.5535 N.am      4 UNK        -0.4237 
     55 C          32.1899  -50.5723  -50.5451 C.2       3 UNK         0.4908 
     56 O          31.5055  -51.3656  -49.8966 O.2       3 UNK        -0.5102 
     57 CA         33.6802  -50.3628  -50.1947 C.3       3 UNK         0.0241 
     58 CB         34.3252  -51.6161  -49.5638 C.3       3 UNK        -0.1971 
     59 N          34.4880  -49.8582  -51.3202 N.am      3 UNK        -0.4139 
     60 C          34.7281  -50.4800  -52.4856 C.2       2 UNK         0.5016 
     61 O          34.3004  -51.5984  -52.7761 O.2       2 UNK        -0.5319 
     62 CA         35.5246  -49.6756  -53.5198 C.3       2 UNK         0.0286 
     63 CB         36.0551  -50.5451  -54.6790 C.3       2 UNK        -0.1963 
     64 N          34.6694  -48.6114  -54.0441 N.am      2 UNK        -0.4790 
     65 C          35.1130  -47.4729  -54.5883 C.2       1 UNK         0.5024 
     66 O          36.3060  -47.1686  -54.6679 O.2       1 UNK        -0.4888 
     67 H67        35.5920  -46.9239  -59.3289 H         1 UNK         0.0892 
     68 H68        33.8885  -46.5682  -59.6296 H         1 UNK         0.0892 
     69 H69        34.9256  -45.3522  -58.8816 H         1 UNK         0.0892 
     70 H70        34.6014  -45.1843  -56.6817 H         1 UNK         0.3107 
     71 H71        33.0801  -47.0196  -55.1495 H         1 UNK         0.0773 
     72 H72        33.2524  -44.5273  -54.7812 H         1 UNK         0.0680 
     73 H73        34.8639  -44.7325  -54.1465 H         1 UNK         0.0680 
     74 H74        32.6528  -43.8303  -51.0325 H         1 UNK         0.0650 
     75 H75        33.4517  -43.1543  -52.4269 H         1 UNK         0.0650 
     76 H76        30.2313  -44.3712  -51.0677 H         1 UNK         0.1397 
     77 H77        27.8633  -42.4742  -54.0978 H         1 UNK         0.1363 
     78 H78        32.1366  -42.5164  -54.4299 H         1 UNK         0.1355 
     79 H79        30.8980  -41.2557  -55.9823 H         1 UNK         0.0707 
     80 H80        29.2923  -40.7408  -55.5686 H         1 UNK         0.0707 
     81 H81        27.2936  -41.5669  -56.2705 H         1 UNK         0.1034 
     82 H82        27.1477  -41.9160  -57.9582 H         1 UNK         0.1034 
     83 H83        27.1890  -44.0699  -55.8033 H         1 UNK         0.0482 
     84 H84        23.3324  -44.0197  -56.1615 H         1 UNK         0.3460 
     85 H85        24.4338  -45.0160  -57.0816 H         1 UNK         0.3460 
     86 H86        27.1523  -45.5781  -57.3554 H         1 UNK         0.2989 
     87 H87        25.4767  -45.8991  -60.4088 H         1 UNK         0.0559 
     88 H88        27.5521  -46.8026  -61.4028 H         1 UNK         0.0848 
     89 H89        28.5301  -45.9585  -60.2075 H         1 UNK         0.0848 
     90 H90        27.5985  -45.0475  -61.3834 H         1 UNK         0.0848 
     91 H91        27.2168  -47.6632  -58.9726 H         1 UNK         0.3144 
     92 H92        25.2075  -48.7082  -56.5062 H         1 UNK         0.0727 
     93 H93        24.1569  -50.7536  -57.4852 H         1 UNK         0.0790 
     94 H94        24.2626  -50.0561  -59.1011 H         1 UNK         0.0790 
     95 H95        23.2117  -49.3325  -57.8900 H         1 UNK         0.0790 
     96 H96        27.1748  -49.3163  -58.5529 H         1 UNK         0.3215 
     97 H97        28.9084  -51.6076  -56.4725 H         1 UNK         0.0863 
     98 H98        29.7254  -51.9725  -58.7746 H         1 UNK         0.0808 
     99 H99        28.4541  -50.9535  -59.4386 H         1 UNK         0.0808 
    100 H100       28.0449  -52.4602  -58.6378 H         1 UNK         0.0808 
    101 H101       30.1323  -49.7847  -56.2935 H         1 UNK         0.3118 
    102 H102       31.4917  -47.9028  -57.2342 H         1 UNK         0.0546 
    103 H103       29.4860  -45.7513  -58.0907 H         1 UNK         0.0828 
    104 H104       30.7613  -46.4102  -59.1110 H         1 UNK         0.0828 
    105 H105       31.1730  -45.4939  -57.6704 H         1 UNK         0.0828 
    106 H106       30.8241  -47.4113  -55.1625 H         1 UNK         0.3005 
    107 H107       29.5726  -46.0323  -53.5826 H         1 UNK         0.1257 
    108 H108       27.1586  -45.2980  -53.9874 H         1 UNK         0.0775 
    109 H109       26.6321  -46.8963  -53.5509 H         1 UNK         0.0775 
    110 H110       26.7579  -43.4475  -52.2389 H         1 UNK         0.0840 
    111 H111       27.6757  -43.4496  -50.7539 H         1 UNK         0.0840 
    112 H112       28.3021  -48.4258  -52.6622 H         1 UNK         0.2987 
    113 H113       29.6514  -49.7154  -51.2768 H         1 UNK         0.0785 
    114 H114       30.1164  -51.9761  -52.2849 H         1 UNK         0.0798 
    115 H115       30.8048  -51.2174  -53.7176 H         1 UNK         0.0798 
    116 H116       29.0886  -51.0494  -53.3647 H         1 UNK         0.0798 
    117 H117       32.3332  -49.1749  -52.0088 H         1 UNK         0.3079 
    118 H118       33.6953  -49.5757  -49.4393 H         1 UNK         0.0794 
    119 H119       33.8158  -51.8967  -48.6411 H         1 UNK         0.0786 
    120 H120       35.3713  -51.4409  -49.3129 H         1 UNK         0.0786 
    121 H121       34.2794  -52.4763  -50.2324 H         1 UNK         0.0786 
    122 H122       34.8633  -48.9267  -51.1989 H         1 UNK         0.3032 
    123 H123       36.3808  -49.2368  -53.0018 H         1 UNK         0.1094 
    124 H124       35.2417  -50.9691  -55.2692 H         1 UNK         0.0794 
    125 H125       36.6882  -49.9675  -55.3527 H         1 UNK         0.0794 
    126 H126       36.6555  -51.3743  -54.3029 H         1 UNK         0.0794 
    127 H127       33.6711  -48.7774  -54.0065 H         1 UNK         0.3016 
@<TRIPOS>BOND
     1    1    2 1    
     2    1   67 1    
     3    1   68 1    
     4    1   69 1    
     5    2    3 2    
     6    2    4 am   BACKBONE|DICT|INTERRES
     7    4    5 1    
     8    4   70 1    
     9    5    6 1    
    10    5   65 1    
    11    5   71 1    
    12    6    7 1    
    13    6   72 1    
    14    6   73 1    
    15    7    8 1    
    16    8    9 1    
    17    8   74 1    
    18    8   75 1    
    19    9   10 ar   
    20    9   14 ar   
    21   10   11 ar   
    22   10   76 1    
    23   11   12 ar   
    24   11   48 1    
    25   12   13 ar   
    26   12   77 1    
    27   13   14 ar   
    28   13   15 1    
    29   14   78 1    
    30   15   16 1    
    31   15   79 1    
    32   15   80 1    
    33   16   17 1    
    34   17   18 1    
    35   17   81 1    
    36   17   82 1    
    37   18   19 1    
    38   18   22 1    
    39   18   83 1    
    40   19   20 am   BACKBONE|DICT|INTERRES
    41   19   21 2    
    42   20   84 1    
    43   20   85 1    
    44   22   23 am   BACKBONE|DICT|INTERRES
    45   22   86 1    
    46   23   24 2    
    47   23   25 1    
    48   25   26 1    
    49   25   27 1    
    50   25   87 1    
    51   26   88 1    
    52   26   89 1    
    53   26   90 1    
    54   27   28 am   BACKBONE|DICT|INTERRES
    55   27   91 1    
    56   28   29 2    
    57   28   30 1    
    58   30   31 1    
    59   30   32 1    
    60   30   92 1    
    61   31   93 1    
    62   31   94 1    
    63   31   95 1    
    64   32   33 am   BACKBONE|DICT|INTERRES
    65   32   96 1    
    66   33   34 2    
    67   33   35 1    
    68   35   36 1    
    69   35   37 1    
    70   35   97 1    
    71   36   98 1    
    72   36   99 1    
    73   36  100 1    
    74   37   38 am   BACKBONE|DICT|INTERRES
    75   37  101 1    
    76   38   39 2    
    77   38   40 1    
    78   40   41 1    
    79   40   42 1    
    80   40  102 1    
    81   41  103 1    
    82   41  104 1    
    83   41  105 1    
    84   42   43 am   BACKBONE|DICT|INTERRES
    85   42  106 1    
    86   43   44 2    
    87   43   45 1    
    88   45   46 1    
    89   45   49 1    
    90   45  107 1    
    91   46   47 1    
    92   46  108 1    
    93   46  109 1    
    94   47   48 1    
    95   48  110 1    
    96   48  111 1    
    97   49   50 am   BACKBONE|DICT|INTERRES
    98   49  112 1    
    99   50   51 2    
   100   50   52 1    
   101   52   53 1    
   102   52   54 1    
   103   52  113 1    
   104   53  114 1    
   105   53  115 1    
   106   53  116 1    
   107   54   55 am   BACKBONE|DICT|INTERRES
   108   54  117 1    
   109   55   56 2    
   110   55   57 1    
   111   57   58 1    
   112   57   59 1    
   113   57  118 1    
   114   58  119 1    
   115   58  120 1    
   116   58  121 1    
   117   59   60 am   BACKBONE|DICT|INTERRES
   118   59  122 1    
   119   60   61 2    
   120   60   62 1    
   121   62   63 1    
   122   62   64 1    
   123   62  123 1    
   124   63  124 1    
   125   63  125 1    
   126   63  126 1    
   127   64   65 am   BACKBONE|DICT|INTERRES
   128   64  127 1    
   129   65   66 2    
@<TRIPOS>SUBSTRUCTURE
     1 UNK         1 GROUP             0       ****    0 ROOT    
