@<TRIPOS>MOLECULE
3R134
127   129    1
SMALL
USER_CHARGES


@<TRIPOS>ATOM
      1 CA         33.1904  -49.4213  -59.5218 C.3       0 UNK        -0.1968 
      2 C          33.1612  -49.4770  -58.0021 C.2       0 UNK         0.4852 
      3 O          33.0882  -50.5646  -57.4281 O.2       0 UNK        -0.5359 
      4 N          33.2370  -48.3159  -57.3392 N.am      1 UNK        -0.4300 
      5 CA         33.1245  -48.1430  -55.8827 C.3       1 UNK         0.0863 
      6 C6         32.6095  -46.7303  -55.5095 C.3       11 UNK        -0.0953 
      7 S7         30.9862  -46.3951  -56.2680 S.3       11 UNK        -0.2369 
      8 C8         31.0912  -44.6112  -56.6004 C.3       11 UNK         0.0226 
      9 C9         30.4870  -43.8178  -55.4551 C.ar      11 UNK        -0.0699 
     10 C10        31.2345  -43.5329  -54.3095 C.ar      11 UNK        -0.0804 
     11 C11        30.6514  -42.8468  -53.2394 C.ar      11 UNK        -0.0871 
     12 C12        29.3245  -42.4116  -53.3405 C.ar      11 UNK        -0.1008 
     13 C13        28.5719  -42.6734  -54.4894 C.ar      11 UNK        -0.0735 
     14 C14        29.1613  -43.3875  -55.5374 C.ar      11 UNK        -0.0945 
     15 C15        27.1115  -42.2344  -54.5630 C.3       11 UNK         0.0169 
     16 S16        26.6401  -41.5797  -56.2007 S.3       11 UNK        -0.2669 
     17 C17        24.9522  -42.2556  -56.3945 C.3       11 UNK        -0.0850 
     18 CA         24.9153  -43.7720  -56.7658 C.3       10 UNK         0.0855 
     19 C          23.4728  -44.3470  -56.9148 C.2       10 UNK         0.5543 
     20 N          22.5315  -43.9266  -56.0793 N.am      10 UNK        -0.7343 
     21 O          23.1996  -45.2108  -57.7466 O.2       10 UNK        -0.5027 
     22 N          25.8049  -44.1128  -57.8863 N.am      10 UNK        -0.4495 
     23 C          25.7012  -43.7262  -59.1611 C.2       10 UNK         0.4903 
     24 O          24.8041  -42.9992  -59.5900 O.2       10 UNK        -0.4860 
     25 CA         26.7938  -44.2159  -60.1356 C.3       9 UNK         0.0227 
     26 CB         28.0128  -43.2725  -60.0906 C.3       9 UNK        -0.1964 
     27 N          27.2098  -45.6244  -59.9926 N.am      9 UNK        -0.4231 
     28 C          27.8254  -46.2141  -58.9584 C.2       9 UNK         0.5014 
     29 O          28.0884  -45.6429  -57.8966 O.2       9 UNK        -0.5270 
     30 CA         28.2170  -47.6875  -59.1308 C.3       8 UNK         0.0284 
     31 CB         29.5148  -47.8251  -59.9454 C.3       8 UNK        -0.1977 
     32 N          28.4326  -48.2253  -57.7956 N.am      8 UNK        -0.4342 
     33 C          28.0620  -49.4231  -57.3357 C.2       8 UNK         0.5039 
     34 O          27.6027  -50.3210  -58.0428 O.2       8 UNK        -0.5547 
     35 CA         28.2088  -49.6474  -55.8180 C.3       7 UNK         0.0281 
     36 CB         29.5122  -50.3991  -55.5089 C.3       7 UNK        -0.1963 
     37 N          28.1740  -48.3918  -55.0566 N.am      7 UNK        -0.4444 
     38 C          27.0710  -47.6470  -54.8804 C.2       7 UNK         0.5104 
     39 O          25.9540  -47.9980  -55.2625 O.2       7 UNK        -0.5100 
     40 CA         27.2331  -46.2646  -54.2158 C.3       6 UNK         0.0396 
     41 CB         26.0431  -45.9100  -53.2985 C.3       6 UNK        -0.1801 
     42 N          28.5164  -46.0619  -53.5322 N.am      6 UNK        -0.4747 
     43 C          28.9539  -46.6698  -52.4202 C.2       6 UNK         0.5012 
     44 O          28.3010  -47.4928  -51.7744 O.2       6 UNK        -0.5003 
     45 CA         30.3671  -46.2683  -51.9536 C.3       5 UNK         0.0782 
     46 C46        30.3195  -45.0342  -51.0171 C.3       11 UNK        -0.0868 
     47 S47        31.9006  -44.1255  -51.0811 S.3       11 UNK        -0.2515 
     48 C48        31.4435  -42.5901  -51.9617 C.3       11 UNK         0.0199 
     49 N          31.0614  -47.3942  -51.3207 N.am      5 UNK        -0.4607 
     50 C          31.4112  -48.5239  -51.9452 C.2       4 UNK         0.5031 
     51 O          31.2737  -48.7157  -53.1560 O.2       4 UNK        -0.5119 
     52 CA         31.9765  -49.6396  -51.0600 C.3       4 UNK         0.0263 
     53 CB         30.8364  -50.3373  -50.2892 C.3       4 UNK        -0.1967 
     54 N          32.6751  -50.5935  -51.9159 N.am      4 UNK        -0.4237 
     55 C          33.4689  -51.5918  -51.5113 C.2       3 UNK         0.4908 
     56 O          33.7336  -51.8297  -50.3322 O.2       3 UNK        -0.5102 
     57 CA         34.0736  -52.4746  -52.6140 C.3       3 UNK         0.0241 
     58 CB         33.0197  -53.4428  -53.1782 C.3       3 UNK        -0.1971 
     59 N          34.6461  -51.6822  -53.7034 N.am      3 UNK        -0.4139 
     60 C          35.8161  -51.0297  -53.6349 C.2       2 UNK         0.5016 
     61 O          36.5621  -51.0532  -52.6553 O.2       2 UNK        -0.5319 
     62 CA         36.2223  -50.2113  -54.8713 C.3       2 UNK         0.0286 
     63 CB         36.9947  -51.0855  -55.8724 C.3       2 UNK        -0.1963 
     64 N          35.0611  -49.6214  -55.5391 N.am      2 UNK        -0.4790 
     65 C          34.4128  -48.5280  -55.1185 C.2       1 UNK         0.5024 
     66 O          34.7964  -47.8479  -54.1654 O.2       1 UNK        -0.4888 
     67 H67        33.2145  -48.3965  -59.8921 H         1 UNK         0.0892 
     68 H68        34.0701  -49.9415  -59.8998 H         1 UNK         0.0892 
     69 H69        32.3047  -49.9072  -59.9300 H         1 UNK         0.0892 
     70 H70        33.3249  -47.4572  -57.8631 H         1 UNK         0.3107 
     71 H71        32.3761  -48.8523  -55.5305 H         1 UNK         0.0773 
     72 H72        32.4996  -46.6274  -54.4299 H         1 UNK         0.0680 
     73 H73        33.3331  -45.9744  -55.8176 H         1 UNK         0.0680 
     74 H74        30.5521  -44.4015  -57.5256 H         1 UNK         0.0650 
     75 H75        32.1220  -44.3033  -56.7783 H         1 UNK         0.0650 
     76 H76        32.2589  -43.8725  -54.2366 H         1 UNK         0.1397 
     77 H77        28.8695  -41.8816  -52.5146 H         1 UNK         0.1363 
     78 H78        28.5826  -43.6180  -56.4206 H         1 UNK         0.1355 
     79 H79        26.4886  -43.0903  -54.3083 H         1 UNK         0.0707 
     80 H80        26.9012  -41.4680  -53.8155 H         1 UNK         0.0707 
     81 H81        24.4091  -42.0650  -55.4681 H         1 UNK         0.1034 
     82 H82        24.4446  -41.6719  -57.1644 H         1 UNK         0.1034 
     83 H83        25.3303  -44.3233  -55.9236 H         1 UNK         0.0482 
     84 H84        21.6033  -44.3114  -56.1628 H         1 UNK         0.3460 
     85 H85        22.7231  -43.2427  -55.3652 H         1 UNK         0.3460 
     86 H86        26.6006  -44.7066  -57.6621 H         1 UNK         0.2989 
     87 H87        26.3663  -44.1432  -61.1369 H         1 UNK         0.0559 
     88 H88        27.7158  -42.2434  -60.2967 H         1 UNK         0.0848 
     89 H89        28.7589  -43.5502  -60.8350 H         1 UNK         0.0848 
     90 H90        28.4963  -43.2768  -59.1129 H         1 UNK         0.0848 
     91 H91        27.0086  -46.2023  -60.7975 H         1 UNK         0.3144 
     92 H92        27.4002  -48.2174  -59.6254 H         1 UNK         0.0727 
     93 H93        30.3407  -47.2859  -59.4788 H         1 UNK         0.0790 
     94 H94        29.3919  -47.4290  -60.9540 H         1 UNK         0.0790 
     95 H95        29.8107  -48.8699  -60.0406 H         1 UNK         0.0790 
     96 H96        28.7485  -47.5255  -57.1334 H         1 UNK         0.3215 
     97 H97        27.3709  -50.2676  -55.4921 H         1 UNK         0.0863 
     98 H98        29.6272  -50.5791  -54.4399 H         1 UNK         0.0808 
     99 H99        30.3831  -49.8443  -55.8547 H         1 UNK         0.0808 
    100 H100       29.5294  -51.3698  -56.0062 H         1 UNK         0.0808 
    101 H101       29.0540  -48.0472  -54.6970 H         1 UNK         0.3118 
    102 H102       27.2328  -45.5497  -55.0389 H         1 UNK         0.0546 
    103 H103       25.8955  -46.6587  -52.5199 H         1 UNK         0.0828 
    104 H104       25.1142  -45.8527  -53.8670 H         1 UNK         0.0828 
    105 H105       26.1853  -44.9463  -52.8107 H         1 UNK         0.0828 
    106 H106       29.1274  -45.3900  -53.9816 H         1 UNK         0.3005 
    107 H107       30.9299  -46.0101  -52.8521 H         1 UNK         0.1257 
    108 H108       30.1210  -45.3329  -49.9863 H         1 UNK         0.0775 
    109 H109       29.5079  -44.3534  -51.2785 H         1 UNK         0.0775 
    110 H110       30.8788  -41.9531  -51.2791 H         1 UNK         0.0840 
    111 H111       32.3524  -42.0395  -52.2079 H         1 UNK         0.0840 
    112 H112       31.1908  -47.3283  -50.3222 H         1 UNK         0.2987 
    113 H113       32.6918  -49.2043  -50.3592 H         1 UNK         0.0785 
    114 H114       30.2794  -49.6262  -49.6779 H         1 UNK         0.0798 
    115 H115       31.2142  -51.1066  -49.6162 H         1 UNK         0.0798 
    116 H116       30.1247  -50.8077  -50.9690 H         1 UNK         0.0798 
    117 H117       32.5163  -50.4372  -52.9034 H         1 UNK         0.3079 
    118 H118       34.8712  -53.0705  -52.1643 H         1 UNK         0.0794 
    119 H119       33.4603  -54.1286  -53.9022 H         1 UNK         0.0786 
    120 H120       32.2018  -52.9155  -53.6711 H         1 UNK         0.0786 
    121 H121       32.5839  -54.0497  -52.3833 H         1 UNK         0.0786 
    122 H122       34.1089  -51.6125  -54.5554 H         1 UNK         0.3032 
    123 H123       36.8837  -49.4088  -54.5356 H         1 UNK         0.1094 
    124 H124       36.3821  -51.9026  -56.2556 H         1 UNK         0.0794 
    125 H125       37.3423  -50.4995  -56.7234 H         1 UNK         0.0794 
    126 H126       37.8749  -51.5288  -55.4043 H         1 UNK         0.0794 
    127 H127       34.6515  -50.1317  -56.3165 H         1 UNK         0.3016 
@<TRIPOS>BOND
     1    1    2 1    
     2    1   67 1    
     3    1   68 1    
     4    1   69 1    
     5    2    3 2    
     6    2    4 am   BACKBONE|DICT|INTERRES
     7    4    5 1    
     8    4   70 1    
     9    5    6 1    
    10    5   65 1    
    11    5   71 1    
    12    6    7 1    
    13    6   72 1    
    14    6   73 1    
    15    7    8 1    
    16    8    9 1    
    17    8   74 1    
    18    8   75 1    
    19    9   10 ar   
    20    9   14 ar   
    21   10   11 ar   
    22   10   76 1    
    23   11   12 ar   
    24   11   48 1    
    25   12   13 ar   
    26   12   77 1    
    27   13   14 ar   
    28   13   15 1    
    29   14   78 1    
    30   15   16 1    
    31   15   79 1    
    32   15   80 1    
    33   16   17 1    
    34   17   18 1    
    35   17   81 1    
    36   17   82 1    
    37   18   19 1    
    38   18   22 1    
    39   18   83 1    
    40   19   20 am   BACKBONE|DICT|INTERRES
    41   19   21 2    
    42   20   84 1    
    43   20   85 1    
    44   22   23 am   BACKBONE|DICT|INTERRES
    45   22   86 1    
    46   23   24 2    
    47   23   25 1    
    48   25   26 1    
    49   25   27 1    
    50   25   87 1    
    51   26   88 1    
    52   26   89 1    
    53   26   90 1    
    54   27   28 am   BACKBONE|DICT|INTERRES
    55   27   91 1    
    56   28   29 2    
    57   28   30 1    
    58   30   31 1    
    59   30   32 1    
    60   30   92 1    
    61   31   93 1    
    62   31   94 1    
    63   31   95 1    
    64   32   33 am   BACKBONE|DICT|INTERRES
    65   32   96 1    
    66   33   34 2    
    67   33   35 1    
    68   35   36 1    
    69   35   37 1    
    70   35   97 1    
    71   36   98 1    
    72   36   99 1    
    73   36  100 1    
    74   37   38 am   BACKBONE|DICT|INTERRES
    75   37  101 1    
    76   38   39 2    
    77   38   40 1    
    78   40   41 1    
    79   40   42 1    
    80   40  102 1    
    81   41  103 1    
    82   41  104 1    
    83   41  105 1    
    84   42   43 am   BACKBONE|DICT|INTERRES
    85   42  106 1    
    86   43   44 2    
    87   43   45 1    
    88   45   46 1    
    89   45   49 1    
    90   45  107 1    
    91   46   47 1    
    92   46  108 1    
    93   46  109 1    
    94   47   48 1    
    95   48  110 1    
    96   48  111 1    
    97   49   50 am   BACKBONE|DICT|INTERRES
    98   49  112 1    
    99   50   51 2    
   100   50   52 1    
   101   52   53 1    
   102   52   54 1    
   103   52  113 1    
   104   53  114 1    
   105   53  115 1    
   106   53  116 1    
   107   54   55 am   BACKBONE|DICT|INTERRES
   108   54  117 1    
   109   55   56 2    
   110   55   57 1    
   111   57   58 1    
   112   57   59 1    
   113   57  118 1    
   114   58  119 1    
   115   58  120 1    
   116   58  121 1    
   117   59   60 am   BACKBONE|DICT|INTERRES
   118   59  122 1    
   119   60   61 2    
   120   60   62 1    
   121   62   63 1    
   122   62   64 1    
   123   62  123 1    
   124   63  124 1    
   125   63  125 1    
   126   63  126 1    
   127   64   65 am   BACKBONE|DICT|INTERRES
   128   64  127 1    
   129   65   66 2    
@<TRIPOS>SUBSTRUCTURE
     1 UNK         1 GROUP             0       ****    0 ROOT    
