@<TRIPOS>MOLECULE
3R134
127   129    1
SMALL
USER_CHARGES


@<TRIPOS>ATOM
      1 CA         36.3395  -44.6166  -47.7302 C.3       0 UNK        -0.1968 
      2 C          36.3624  -44.8819  -49.2286 C.2       0 UNK         0.4852 
      3 O          37.3480  -45.4172  -49.7395 O.2       0 UNK        -0.5359 
      4 N          35.2899  -44.5034  -49.9351 N.am      1 UNK        -0.4300 
      5 CA         35.0981  -44.7418  -51.3686 C.3       1 UNK         0.0863 
      6 C6         34.0669  -43.7575  -51.9787 C.3       11 UNK        -0.0953 
      7 S7         32.4388  -43.7207  -51.1465 S.3       11 UNK        -0.2369 
      8 C8         31.4310  -44.8244  -52.1861 C.3       11 UNK         0.0226 
      9 C9         31.0753  -44.2050  -53.5301 C.ar      11 UNK        -0.0699 
     10 C10        31.8624  -44.4630  -54.6560 C.ar      11 UNK        -0.0804 
     11 C11        31.5443  -43.8959  -55.8936 C.ar      11 UNK        -0.0871 
     12 C12        30.4080  -43.0915  -56.0065 C.ar      11 UNK        -0.1008 
     13 C13        29.6020  -42.8393  -54.8923 C.ar      11 UNK        -0.0735 
     14 C14        29.9463  -43.3898  -53.6538 C.ar      11 UNK        -0.0945 
     15 C15        28.3619  -41.9680  -55.0354 C.3       11 UNK         0.0169 
     16 S16        26.8095  -42.8735  -54.7241 S.3       11 UNK        -0.2669 
     17 C17        26.9363  -44.3356  -55.8127 C.3       11 UNK        -0.0850 
     18 CA         26.1314  -44.2144  -57.1342 C.3       10 UNK         0.0855 
     19 C          27.0145  -43.7056  -58.3147 C.2       10 UNK         0.5543 
     20 N          27.2544  -44.4882  -59.3607 N.am      10 UNK        -0.7343 
     21 O          27.4723  -42.5667  -58.2951 O.2       10 UNK        -0.5027 
     22 N          25.3994  -45.4594  -57.4166 N.am      10 UNK        -0.4495 
     23 C          24.3329  -45.5440  -58.2212 C.2       10 UNK         0.4903 
     24 O          23.7887  -44.5633  -58.7320 O.2       10 UNK        -0.4860 
     25 CA         23.7757  -46.9565  -58.4996 C.3       9 UNK         0.0227 
     26 CB         22.9780  -47.0206  -59.8193 C.3       9 UNK        -0.1964 
     27 N          24.7790  -48.0300  -58.4700 N.am      9 UNK        -0.4231 
     28 C          25.9104  -48.1265  -59.1826 C.2       9 UNK         0.5014 
     29 O          26.3220  -47.2369  -59.9303 O.2       9 UNK        -0.5270 
     30 CA         26.7048  -49.4433  -59.0372 C.3       8 UNK         0.0284 
     31 CB         28.0144  -49.4290  -59.8475 C.3       8 UNK        -0.1977 
     32 N          27.0080  -49.7958  -57.6448 N.am      8 UNK        -0.4342 
     33 C          26.1304  -50.2484  -56.7383 C.2       8 UNK         0.5039 
     34 O          24.9346  -50.4219  -56.9805 O.2       8 UNK        -0.5547 
     35 CA         26.6546  -50.5269  -55.3199 C.3       7 UNK         0.0281 
     36 CB         27.2349  -51.9469  -55.2274 C.3       7 UNK        -0.1963 
     37 N          27.6539  -49.5562  -54.8688 N.am      7 UNK        -0.4444 
     38 C          27.4165  -48.2543  -54.6501 C.2       7 UNK         0.5104 
     39 O          26.3128  -47.7244  -54.7812 O.2       7 UNK        -0.5100 
     40 CA         28.6301  -47.3946  -54.2476 C.3       6 UNK         0.0396 
     41 CB         28.9927  -47.6270  -52.7722 C.3       6 UNK        -0.1801 
     42 N          29.7962  -47.6419  -55.1011 N.am      6 UNK        -0.4747 
     43 C          29.8188  -47.4580  -56.4320 C.2       6 UNK         0.5012 
     44 O          28.8757  -46.9941  -57.0736 O.2       6 UNK        -0.5003 
     45 CA         31.0709  -47.9564  -57.1851 C.3       5 UNK         0.0782 
     46 C46        32.2175  -46.9220  -57.2242 C.3       11 UNK        -0.0868 
     47 S47        31.8246  -45.4324  -58.1980 S.3       11 UNK        -0.2515 
     48 C48        32.4429  -44.1176  -57.1024 C.3       11 UNK         0.0199 
     49 N          31.5441  -49.2266  -56.6330 N.am      5 UNK        -0.4607 
     50 C          30.9090  -50.3979  -56.7609 C.2       4 UNK         0.5031 
     51 O          29.8694  -50.5464  -57.4002 O.2       4 UNK        -0.5119 
     52 CA         31.5176  -51.5931  -56.0089 C.3       4 UNK         0.0263 
     53 CB         32.6533  -52.2277  -56.8270 C.3       4 UNK        -0.1967 
     54 N          32.0128  -51.2211  -54.6802 N.am      4 UNK        -0.4237 
     55 C          31.2245  -50.8130  -53.6753 C.2       3 UNK         0.4908 
     56 O          29.9971  -50.7766  -53.7474 O.2       3 UNK        -0.5102 
     57 CA         31.9130  -50.3314  -52.3873 C.3       3 UNK         0.0241 
     58 CB         32.0890  -51.4993  -51.4041 C.3       3 UNK        -0.1971 
     59 N          33.2070  -49.6782  -52.6112 N.am      3 UNK        -0.4139 
     60 C          33.3825  -48.5356  -53.2895 C.2       2 UNK         0.5016 
     61 O          32.4744  -47.9253  -53.8582 O.2       2 UNK        -0.5319 
     62 CA         34.8272  -48.0175  -53.3970 C.3       2 UNK         0.0286 
     63 CB         35.3195  -48.1091  -54.8510 C.3       2 UNK        -0.1963 
     64 N          34.9848  -46.6387  -52.9223 N.am      2 UNK        -0.4790 
     65 C          34.7677  -46.2236  -51.6653 C.2       1 UNK         0.5024 
     66 O          34.3445  -46.9580  -50.7681 O.2       1 UNK        -0.4888 
     67 H67        35.4202  -44.1214  -47.4178 H         1 UNK         0.0892 
     68 H68        37.1790  -43.9815  -47.4483 H         1 UNK         0.0892 
     69 H69        36.4220  -45.5548  -47.1823 H         1 UNK         0.0892 
     70 H70        34.4947  -44.0992  -49.4610 H         1 UNK         0.3107 
     71 H71        36.0545  -44.5386  -51.8561 H         1 UNK         0.0773 
     72 H72        34.4715  -42.7465  -51.9113 H         1 UNK         0.0680 
     73 H73        33.9490  -43.9334  -53.0458 H         1 UNK         0.0680 
     74 H74        31.9497  -45.7725  -52.3264 H         1 UNK         0.0650 
     75 H75        30.5151  -45.0575  -51.6418 H         1 UNK         0.0650 
     76 H76        32.7295  -45.1013  -54.5625 H         1 UNK         0.1397 
     77 H77        30.1503  -42.6626  -56.9659 H         1 UNK         0.1363 
     78 H78        29.3271  -43.1924  -52.7894 H         1 UNK         0.1355 
     79 H79        28.3162  -41.5165  -56.0269 H         1 UNK         0.0707 
     80 H80        28.4293  -41.1383  -54.3306 H         1 UNK         0.0707 
     81 H81        26.5366  -45.1539  -55.2146 H         1 UNK         0.1034 
     82 H82        27.9752  -44.6104  -55.9998 H         1 UNK         0.1034 
     83 H83        25.3700  -43.4457  -56.9884 H         1 UNK         0.0482 
     84 H84        26.8829  -45.4323  -59.4084 H         1 UNK         0.3460 
     85 H85        27.8220  -44.1378  -60.1146 H         1 UNK         0.3460 
     86 H86        25.8030  -46.3115  -57.0528 H         1 UNK         0.2989 
     87 H87        23.0835  -47.1707  -57.6844 H         1 UNK         0.0559 
     88 H88        22.5646  -48.0152  -59.9863 H         1 UNK         0.0848 
     89 H89        23.6016  -46.7679  -60.6778 H         1 UNK         0.0848 
     90 H90        22.1395  -46.3231  -59.8088 H         1 UNK         0.0848 
     91 H91        24.5686  -48.8225  -57.8644 H         1 UNK         0.3144 
     92 H92        26.0747  -50.2327  -59.4522 H         1 UNK         0.0727 
     93 H93        28.5272  -50.3893  -59.7921 H         1 UNK         0.0790 
     94 H94        28.6982  -48.6601  -59.4868 H         1 UNK         0.0790 
     95 H95        27.8227  -49.2279  -60.9023 H         1 UNK         0.0790 
     96 H96        27.9826  -49.7253  -57.3699 H         1 UNK         0.3215 
     97 H97        25.8036  -50.4630  -54.6384 H         1 UNK         0.0863 
     98 H98        27.5335  -52.1873  -54.2069 H         1 UNK         0.0808 
     99 H99        28.1089  -52.0686  -55.8680 H         1 UNK         0.0808 
    100 H100       26.4984  -52.6909  -55.5339 H         1 UNK         0.0808 
    101 H101       28.5835  -49.9180  -54.6662 H         1 UNK         0.3118 
    102 H102       28.3710  -46.3423  -54.3622 H         1 UNK         0.0546 
    103 H103       28.2428  -47.1806  -52.1185 H         1 UNK         0.0828 
    104 H104       29.9540  -47.1851  -52.5194 H         1 UNK         0.0828 
    105 H105       29.0440  -48.6858  -52.5216 H         1 UNK         0.0828 
    106 H106       30.6430  -47.9697  -54.6455 H         1 UNK         0.3005 
    107 H107       30.7631  -48.1473  -58.2158 H         1 UNK         0.1257 
    108 H108       33.1014  -47.3710  -57.6802 H         1 UNK         0.0775 
    109 H109       32.5150  -46.6514  -56.2130 H         1 UNK         0.0775 
    110 H110       33.4615  -44.3518  -56.7888 H         1 UNK         0.0840 
    111 H111       32.5122  -43.1916  -57.6753 H         1 UNK         0.0840 
    112 H112       32.3568  -49.1788  -56.0369 H         1 UNK         0.2987 
    113 H113       30.7304  -52.3392  -55.8801 H         1 UNK         0.0785 
    114 H114       33.4853  -51.5377  -56.9729 H         1 UNK         0.0798 
    115 H115       32.3003  -52.5259  -57.8154 H         1 UNK         0.0798 
    116 H116       33.0402  -53.1231  -56.3401 H         1 UNK         0.0798 
    117 H117       33.0114  -51.2416  -54.5346 H         1 UNK         0.3079 
    118 H118       31.2542  -49.5950  -51.9232 H         1 UNK         0.0794 
    119 H119       32.7664  -52.2600  -51.7945 H         1 UNK         0.0786 
    120 H120       31.1336  -51.9863  -51.2024 H         1 UNK         0.0786 
    121 H121       32.4829  -51.1566  -50.4470 H         1 UNK         0.0786 
    122 H122       34.0083  -50.1126  -52.1760 H         1 UNK         0.3032 
    123 H123       35.4719  -48.6485  -52.7810 H         1 UNK         0.1094 
    124 H124       36.3736  -47.8423  -54.9302 H         1 UNK         0.0794 
    125 H125       35.2157  -49.1234  -55.2389 H         1 UNK         0.0794 
    126 H126       34.7574  -47.4479  -55.5111 H         1 UNK         0.0794 
    127 H127       35.3179  -45.9705  -53.6019 H         1 UNK         0.3016 
@<TRIPOS>BOND
     1    1    2 1    
     2    1   67 1    
     3    1   68 1    
     4    1   69 1    
     5    2    3 2    
     6    2    4 am   BACKBONE|DICT|INTERRES
     7    4    5 1    
     8    4   70 1    
     9    5    6 1    
    10    5   65 1    
    11    5   71 1    
    12    6    7 1    
    13    6   72 1    
    14    6   73 1    
    15    7    8 1    
    16    8    9 1    
    17    8   74 1    
    18    8   75 1    
    19    9   10 ar   
    20    9   14 ar   
    21   10   11 ar   
    22   10   76 1    
    23   11   12 ar   
    24   11   48 1    
    25   12   13 ar   
    26   12   77 1    
    27   13   14 ar   
    28   13   15 1    
    29   14   78 1    
    30   15   16 1    
    31   15   79 1    
    32   15   80 1    
    33   16   17 1    
    34   17   18 1    
    35   17   81 1    
    36   17   82 1    
    37   18   19 1    
    38   18   22 1    
    39   18   83 1    
    40   19   20 am   BACKBONE|DICT|INTERRES
    41   19   21 2    
    42   20   84 1    
    43   20   85 1    
    44   22   23 am   BACKBONE|DICT|INTERRES
    45   22   86 1    
    46   23   24 2    
    47   23   25 1    
    48   25   26 1    
    49   25   27 1    
    50   25   87 1    
    51   26   88 1    
    52   26   89 1    
    53   26   90 1    
    54   27   28 am   BACKBONE|DICT|INTERRES
    55   27   91 1    
    56   28   29 2    
    57   28   30 1    
    58   30   31 1    
    59   30   32 1    
    60   30   92 1    
    61   31   93 1    
    62   31   94 1    
    63   31   95 1    
    64   32   33 am   BACKBONE|DICT|INTERRES
    65   32   96 1    
    66   33   34 2    
    67   33   35 1    
    68   35   36 1    
    69   35   37 1    
    70   35   97 1    
    71   36   98 1    
    72   36   99 1    
    73   36  100 1    
    74   37   38 am   BACKBONE|DICT|INTERRES
    75   37  101 1    
    76   38   39 2    
    77   38   40 1    
    78   40   41 1    
    79   40   42 1    
    80   40  102 1    
    81   41  103 1    
    82   41  104 1    
    83   41  105 1    
    84   42   43 am   BACKBONE|DICT|INTERRES
    85   42  106 1    
    86   43   44 2    
    87   43   45 1    
    88   45   46 1    
    89   45   49 1    
    90   45  107 1    
    91   46   47 1    
    92   46  108 1    
    93   46  109 1    
    94   47   48 1    
    95   48  110 1    
    96   48  111 1    
    97   49   50 am   BACKBONE|DICT|INTERRES
    98   49  112 1    
    99   50   51 2    
   100   50   52 1    
   101   52   53 1    
   102   52   54 1    
   103   52  113 1    
   104   53  114 1    
   105   53  115 1    
   106   53  116 1    
   107   54   55 am   BACKBONE|DICT|INTERRES
   108   54  117 1    
   109   55   56 2    
   110   55   57 1    
   111   57   58 1    
   112   57   59 1    
   113   57  118 1    
   114   58  119 1    
   115   58  120 1    
   116   58  121 1    
   117   59   60 am   BACKBONE|DICT|INTERRES
   118   59  122 1    
   119   60   61 2    
   120   60   62 1    
   121   62   63 1    
   122   62   64 1    
   123   62  123 1    
   124   63  124 1    
   125   63  125 1    
   126   63  126 1    
   127   64   65 am   BACKBONE|DICT|INTERRES
   128   64  127 1    
   129   65   66 2    
@<TRIPOS>SUBSTRUCTURE
     1 UNK         1 GROUP             0       ****    0 ROOT    
