@<TRIPOS>MOLECULE
3R134
127   129    1
SMALL
USER_CHARGES


@<TRIPOS>ATOM
      1 CA         30.0083  -45.2343  -47.9436 C.3       0 UNK        -0.1968 
      2 C          31.4002  -45.3596  -48.5462 C.2       0 UNK         0.4852 
      3 O          32.3902  -45.3027  -47.8145 O.2       0 UNK        -0.5359 
      4 N          31.4828  -45.5217  -49.8732 N.am      1 UNK        -0.4300 
      5 CA         32.7307  -45.7304  -50.6124 C.3       1 UNK         0.0863 
      6 C6         32.5354  -45.4647  -52.1265 C.3       11 UNK        -0.0953 
      7 S7         34.0823  -44.9820  -52.9639 S.3       11 UNK        -0.2369 
      8 C8         33.5643  -43.4994  -53.8868 C.3       11 UNK         0.0226 
      9 C9         32.5935  -43.8347  -55.0117 C.ar      11 UNK        -0.0699 
     10 C10        33.0521  -44.4808  -56.1635 C.ar      11 UNK        -0.0804 
     11 C11        32.1724  -44.7898  -57.2058 C.ar      11 UNK        -0.0871 
     12 C12        30.8229  -44.4466  -57.0897 C.ar      11 UNK        -0.1008 
     13 C13        30.3543  -43.7862  -55.9493 C.ar      11 UNK        -0.0735 
     14 C14        31.2433  -43.4832  -54.9132 C.ar      11 UNK        -0.0945 
     15 C15        28.8854  -43.4120  -55.8351 C.3       11 UNK         0.0169 
     16 S16        28.5250  -41.8537  -56.7045 S.3       11 UNK        -0.2669 
     17 C17        26.7326  -41.5910  -56.4186 C.3       11 UNK        -0.0850 
     18 CA         25.8410  -42.8636  -56.4001 C.3       10 UNK         0.0855 
     19 C          24.3511  -42.4902  -56.1710 C.2       10 UNK         0.5543 
     20 N          23.9273  -42.3708  -54.9204 N.am      10 UNK        -0.7343 
     21 O          23.5919  -42.2645  -57.1119 O.2       10 UNK        -0.5027 
     22 N          26.0353  -43.6713  -57.6121 N.am      10 UNK        -0.4495 
     23 C          25.6923  -44.9583  -57.7371 C.2       10 UNK         0.4903 
     24 O          25.1534  -45.6070  -56.8385 O.2       10 UNK        -0.4860 
     25 CA         26.0192  -45.6284  -59.0858 C.3       9 UNK         0.0227 
     26 CB         27.3211  -45.0960  -59.7200 C.3       9 UNK        -0.1964 
     27 N          26.1558  -47.0743  -58.9172 N.am      9 UNK        -0.4231 
     28 C          25.2001  -47.9831  -59.1455 C.2       9 UNK         0.5014 
     29 O          24.0708  -47.7110  -59.5564 O.2       9 UNK        -0.5270 
     30 CA         25.5727  -49.4500  -58.8864 C.3       8 UNK         0.0284 
     31 CB         26.5033  -49.9765  -59.9932 C.3       8 UNK        -0.1977 
     32 N          26.2257  -49.6177  -57.5867 N.am      8 UNK        -0.4342 
     33 C          25.6318  -50.1009  -56.4861 C.2       8 UNK         0.5039 
     34 O          24.4514  -50.4509  -56.4431 O.2       8 UNK        -0.5547 
     35 CA         26.4945  -50.2484  -55.2177 C.3       7 UNK         0.0281 
     36 CB         26.9341  -51.7106  -55.0368 C.3       7 UNK        -0.1963 
     37 N          27.6772  -49.3838  -55.2371 N.am      7 UNK        -0.4444 
     38 C          27.6444  -48.0770  -54.9347 C.2       7 UNK         0.5104 
     39 O          26.6493  -47.5137  -54.4801 O.2       7 UNK        -0.5100 
     40 CA         28.9123  -47.2405  -55.1924 C.3       6 UNK         0.0396 
     41 CB         29.5876  -46.8394  -53.8756 C.3       6 UNK        -0.1801 
     42 N          29.8991  -47.8762  -56.0678 N.am      6 UNK        -0.4747 
     43 C          29.7043  -48.1418  -57.3675 C.2       6 UNK         0.5012 
     44 O          28.6717  -47.8437  -57.9690 O.2       6 UNK        -0.5003 
     45 CA         30.7866  -48.9547  -58.1059 C.3       5 UNK         0.0782 
     46 C46        31.6509  -48.0664  -59.0371 C.3       11 UNK        -0.0868 
     47 S47        33.0449  -47.2241  -58.2064 S.3       11 UNK        -0.2515 
     48 C48        32.6970  -45.4566  -58.4684 C.3       11 UNK         0.0199 
     49 N          31.5949  -49.8062  -57.2229 N.am      5 UNK        -0.4607 
     50 C          31.1204  -50.7790  -56.4329 C.2       4 UNK         0.5031 
     51 O          29.9290  -51.0832  -56.3774 O.2       4 UNK        -0.5119 
     52 CA         32.1259  -51.5185  -55.5333 C.3       4 UNK         0.0263 
     53 CB         32.5039  -52.8708  -56.1583 C.3       4 UNK        -0.1967 
     54 N          33.3491  -50.7617  -55.2403 N.am      4 UNK        -0.4237 
     55 C          33.4018  -49.6425  -54.5049 C.2       3 UNK         0.4908 
     56 O          32.4096  -49.0730  -54.0445 O.2       3 UNK        -0.5102 
     57 CA         34.7983  -49.0404  -54.2861 C.3       3 UNK         0.0241 
     58 CB         35.0517  -47.8887  -55.2701 C.3       3 UNK        -0.1971 
     59 N          34.9451  -48.5404  -52.9208 N.am      3 UNK        -0.4139 
     60 C          35.1858  -49.3073  -51.8477 C.2       2 UNK         0.5016 
     61 O          35.3485  -50.5272  -51.9025 O.2       2 UNK        -0.5319 
     62 CA         35.2841  -48.5990  -50.4824 C.3       2 UNK         0.0286 
     63 CB         36.7560  -48.3972  -50.0865 C.3       2 UNK        -0.1963 
     64 N          34.6029  -47.3014  -50.4687 N.am      2 UNK        -0.4790 
     65 C          33.2750  -47.1551  -50.3807 C.2       1 UNK         0.5024 
     66 O          32.4955  -48.0915  -50.1869 O.2       1 UNK        -0.4888 
     67 H67        29.2281  -45.2874  -48.7028 H         1 UNK         0.0892 
     68 H68        29.8374  -46.0360  -47.2257 H         1 UNK         0.0892 
     69 H69        29.9093  -44.2826  -47.4223 H         1 UNK         0.0892 
     70 H70        30.6343  -45.5988  -50.4147 H         1 UNK         0.3107 
     71 H71        33.4570  -45.0140  -50.2209 H         1 UNK         0.0773 
     72 H72        32.1294  -46.3406  -52.6344 H         1 UNK         0.0680 
     73 H73        31.8056  -44.6672  -52.2714 H         1 UNK         0.0680 
     74 H74        34.4502  -43.0231  -54.3092 H         1 UNK         0.0650 
     75 H75        33.1294  -42.7756  -53.1957 H         1 UNK         0.0650 
     76 H76        34.0974  -44.7452  -56.2479 H         1 UNK         0.1397 
     77 H77        30.1383  -44.6800  -57.8923 H         1 UNK         0.1363 
     78 H78        30.8828  -42.9737  -54.0302 H         1 UNK         0.1355 
     79 H79        28.5916  -43.3254  -54.7878 H         1 UNK         0.0707 
     80 H80        28.2872  -44.2124  -56.2648 H         1 UNK         0.0707 
     81 H81        26.6305  -41.0560  -55.4724 H         1 UNK         0.1034 
     82 H82        26.3793  -40.8986  -57.1854 H         1 UNK         0.1034 
     83 H83        26.1454  -43.4757  -55.5490 H         1 UNK         0.0482 
     84 H84        24.5419  -42.5454  -54.1405 H         1 UNK         0.3460 
     85 H85        22.9673  -42.1129  -54.7516 H         1 UNK         0.3460 
     86 H86        26.4499  -43.1943  -58.3983 H         1 UNK         0.2989 
     87 H87        25.1948  -45.4103  -59.7674 H         1 UNK         0.0559 
     88 H88        28.1660  -45.1874  -59.0372 H         1 UNK         0.0848 
     89 H89        27.2345  -44.0477  -60.0068 H         1 UNK         0.0848 
     90 H90        27.5707  -45.6479  -60.6265 H         1 UNK         0.0848 
     91 H91        27.0540  -47.3881  -58.5535 H         1 UNK         0.3144 
     92 H92        24.6523  -50.0371  -58.9222 H         1 UNK         0.0727 
     93 H93        26.7189  -51.0363  -59.8557 H         1 UNK         0.0790 
     94 H94        27.4545  -49.4429  -60.0172 H         1 UNK         0.0790 
     95 H95        26.0420  -49.8652  -60.9754 H         1 UNK         0.0790 
     96 H96        27.1840  -49.3000  -57.5168 H         1 UNK         0.3215 
     97 H97        25.8720  -49.9776  -54.3619 H         1 UNK         0.0863 
     98 H98        27.5481  -51.8354  -54.1448 H         1 UNK         0.0808 
     99 H99        27.5064  -52.0706  -55.8924 H         1 UNK         0.0808 
    100 H100       26.0682  -52.3653  -54.9290 H         1 UNK         0.0808 
    101 H101       28.5391  -49.7959  -55.5817 H         1 UNK         0.3118 
    102 H102       28.5787  -46.3315  -55.6899 H         1 UNK         0.0546 
    103 H103       28.8823  -46.3527  -53.2008 H         1 UNK         0.0828 
    104 H104       30.3931  -46.1322  -54.0651 H         1 UNK         0.0828 
    105 H105       30.0049  -47.7017  -53.3540 H         1 UNK         0.0828 
    106 H106       30.7660  -48.1740  -55.6375 H         1 UNK         0.3005 
    107 H107       30.2286  -49.6376  -58.7511 H         1 UNK         0.1257 
    108 H108       31.0318  -47.3477  -59.5774 H         1 UNK         0.0775 
    109 H109       32.0891  -48.6973  -59.8119 H         1 UNK         0.0775 
    110 H110       33.6243  -44.9654  -58.7671 H         1 UNK         0.0840 
    111 H111       32.0079  -45.3141  -59.3016 H         1 UNK         0.0840 
    112 H112       32.5822  -49.5969  -57.1969 H         1 UNK         0.2987 
    113 H113       31.6215  -51.7112  -54.5839 H         1 UNK         0.0785 
    114 H114       31.6144  -53.4696  -56.3607 H         1 UNK         0.0798 
    115 H115       33.1380  -53.4544  -55.4905 H         1 UNK         0.0798 
    116 H116       33.0339  -52.7457  -57.1035 H         1 UNK         0.0798 
    117 H117       34.2121  -51.1512  -55.5927 H         1 UNK         0.3079 
    118 H118       35.5552  -49.8098  -54.4542 H         1 UNK         0.0794 
    119 H119       34.2684  -47.1311  -55.2155 H         1 UNK         0.0786 
    120 H120       35.0814  -48.2564  -56.2959 H         1 UNK         0.0786 
    121 H121       36.0063  -47.3988  -55.0772 H         1 UNK         0.0786 
    122 H122       34.7724  -47.5555  -52.7799 H         1 UNK         0.3032 
    123 H123       34.8167  -49.2523  -49.7416 H         1 UNK         0.1094 
    124 H124       37.2807  -47.7515  -50.7919 H         1 UNK         0.0794 
    125 H125       36.8430  -47.9535  -49.0945 H         1 UNK         0.0794 
    126 H126       37.2867  -49.3501  -50.0607 H         1 UNK         0.0794 
    127 H127       35.1747  -46.4835  -50.6301 H         1 UNK         0.3016 
@<TRIPOS>BOND
     1    1    2 1    
     2    1   67 1    
     3    1   68 1    
     4    1   69 1    
     5    2    3 2    
     6    2    4 am   BACKBONE|DICT|INTERRES
     7    4    5 1    
     8    4   70 1    
     9    5    6 1    
    10    5   65 1    
    11    5   71 1    
    12    6    7 1    
    13    6   72 1    
    14    6   73 1    
    15    7    8 1    
    16    8    9 1    
    17    8   74 1    
    18    8   75 1    
    19    9   10 ar   
    20    9   14 ar   
    21   10   11 ar   
    22   10   76 1    
    23   11   12 ar   
    24   11   48 1    
    25   12   13 ar   
    26   12   77 1    
    27   13   14 ar   
    28   13   15 1    
    29   14   78 1    
    30   15   16 1    
    31   15   79 1    
    32   15   80 1    
    33   16   17 1    
    34   17   18 1    
    35   17   81 1    
    36   17   82 1    
    37   18   19 1    
    38   18   22 1    
    39   18   83 1    
    40   19   20 am   BACKBONE|DICT|INTERRES
    41   19   21 2    
    42   20   84 1    
    43   20   85 1    
    44   22   23 am   BACKBONE|DICT|INTERRES
    45   22   86 1    
    46   23   24 2    
    47   23   25 1    
    48   25   26 1    
    49   25   27 1    
    50   25   87 1    
    51   26   88 1    
    52   26   89 1    
    53   26   90 1    
    54   27   28 am   BACKBONE|DICT|INTERRES
    55   27   91 1    
    56   28   29 2    
    57   28   30 1    
    58   30   31 1    
    59   30   32 1    
    60   30   92 1    
    61   31   93 1    
    62   31   94 1    
    63   31   95 1    
    64   32   33 am   BACKBONE|DICT|INTERRES
    65   32   96 1    
    66   33   34 2    
    67   33   35 1    
    68   35   36 1    
    69   35   37 1    
    70   35   97 1    
    71   36   98 1    
    72   36   99 1    
    73   36  100 1    
    74   37   38 am   BACKBONE|DICT|INTERRES
    75   37  101 1    
    76   38   39 2    
    77   38   40 1    
    78   40   41 1    
    79   40   42 1    
    80   40  102 1    
    81   41  103 1    
    82   41  104 1    
    83   41  105 1    
    84   42   43 am   BACKBONE|DICT|INTERRES
    85   42  106 1    
    86   43   44 2    
    87   43   45 1    
    88   45   46 1    
    89   45   49 1    
    90   45  107 1    
    91   46   47 1    
    92   46  108 1    
    93   46  109 1    
    94   47   48 1    
    95   48  110 1    
    96   48  111 1    
    97   49   50 am   BACKBONE|DICT|INTERRES
    98   49  112 1    
    99   50   51 2    
   100   50   52 1    
   101   52   53 1    
   102   52   54 1    
   103   52  113 1    
   104   53  114 1    
   105   53  115 1    
   106   53  116 1    
   107   54   55 am   BACKBONE|DICT|INTERRES
   108   54  117 1    
   109   55   56 2    
   110   55   57 1    
   111   57   58 1    
   112   57   59 1    
   113   57  118 1    
   114   58  119 1    
   115   58  120 1    
   116   58  121 1    
   117   59   60 am   BACKBONE|DICT|INTERRES
   118   59  122 1    
   119   60   61 2    
   120   60   62 1    
   121   62   63 1    
   122   62   64 1    
   123   62  123 1    
   124   63  124 1    
   125   63  125 1    
   126   63  126 1    
   127   64   65 am   BACKBONE|DICT|INTERRES
   128   64  127 1    
   129   65   66 2    
@<TRIPOS>SUBSTRUCTURE
     1 UNK         1 GROUP             0       ****    0 ROOT    
