@<TRIPOS>MOLECULE
3R134
127   129    1
SMALL
USER_CHARGES


@<TRIPOS>ATOM
      1 CA         31.0203  -48.7249  -50.3679 C.3       0 UNK        -0.1968 
      2 C          31.9013  -47.8007  -51.1930 C.2       0 UNK         0.4852 
      3 O          31.8533  -47.8541  -52.4235 O.2       0 UNK        -0.5359 
      4 N          32.7130  -46.9713  -50.5203 N.am      1 UNK        -0.4300 
      5 CA         33.6991  -46.0147  -51.0563 C.3       1 UNK         0.0863 
      6 C6         33.1105  -44.9541  -52.0208 C.3       11 UNK        -0.0953 
      7 S7         31.8727  -43.8761  -51.2304 S.3       11 UNK        -0.2369 
      8 C8         31.8432  -42.4800  -52.4007 C.3       11 UNK         0.0226 
      9 C9         31.2337  -42.8818  -53.7362 C.ar      11 UNK        -0.0699 
     10 C10        32.0425  -43.3836  -54.7601 C.ar      11 UNK        -0.0804 
     11 C11        31.4838  -43.7992  -55.9720 C.ar      11 UNK        -0.0871 
     12 C12        30.1025  -43.6858  -56.1623 C.ar      11 UNK        -0.1008 
     13 C13        29.2846  -43.1630  -55.1540 C.ar      11 UNK        -0.0735 
     14 C14        29.8574  -42.7638  -53.9433 C.ar      11 UNK        -0.0945 
     15 C15        27.7747  -43.0912  -55.3328 C.3       11 UNK         0.0169 
     16 S16        27.2243  -41.5423  -56.1163 S.3       11 UNK        -0.2669 
     17 C17        27.3890  -41.9588  -57.8830 C.3       11 UNK        -0.0850 
     18 CA         26.1594  -42.7509  -58.4270 C.3       10 UNK         0.0855 
     19 C          25.2849  -41.9018  -59.3871 C.2       10 UNK         0.5543 
     20 N          24.6407  -40.8632  -58.8742 N.am      10 UNK        -0.7343 
     21 O          25.1965  -42.1596  -60.5869 O.2       10 UNK        -0.5027 
     22 N          26.5848  -44.0081  -59.0561 N.am      10 UNK        -0.4495 
     23 C          26.5210  -45.2233  -58.5016 C.2       10 UNK         0.4903 
     24 O          26.0140  -45.4542  -57.4021 O.2       10 UNK        -0.4860 
     25 CA         27.1212  -46.3707  -59.3286 C.3       9 UNK         0.0227 
     26 CB         28.5569  -46.0582  -59.7964 C.3       9 UNK        -0.1964 
     27 N          27.1484  -47.5976  -58.5341 N.am      9 UNK        -0.4231 
     28 C          26.8288  -48.8163  -58.9823 C.2       9 UNK         0.5014 
     29 O          26.4444  -49.0421  -60.1314 O.2       9 UNK        -0.5270 
     30 CA         26.9852  -50.0014  -58.0135 C.3       8 UNK         0.0284 
     31 CB         28.3273  -50.7120  -58.2567 C.3       8 UNK        -0.1977 
     32 N          26.8857  -49.6491  -56.5956 N.am      8 UNK        -0.4342 
     33 C          25.7473  -49.3367  -55.9614 C.2       8 UNK         0.5039 
     34 O          24.6563  -49.2370  -56.5240 O.2       8 UNK        -0.5547 
     35 CA         25.8286  -49.1324  -54.4404 C.3       7 UNK         0.0281 
     36 CB         25.8703  -50.4895  -53.7174 C.3       7 UNK        -0.1963 
     37 N          27.0090  -48.3527  -54.0687 N.am      7 UNK        -0.4444 
     38 C          26.9889  -47.0645  -53.6997 C.2       7 UNK         0.5104 
     39 O          25.9563  -46.4106  -53.5483 O.2       7 UNK        -0.5100 
     40 CA         28.3453  -46.3766  -53.4417 C.3       6 UNK         0.0396 
     41 CB         28.6142  -46.2651  -51.9344 C.3       6 UNK        -0.1801 
     42 N          29.4931  -47.0113  -54.0975 N.am      6 UNK        -0.4747 
     43 C          29.6318  -47.1556  -55.4245 C.2       6 UNK         0.5012 
     44 O          28.7988  -46.7774  -56.2474 O.2       6 UNK        -0.5003 
     45 CA         30.8620  -47.9474  -55.9104 C.3       5 UNK         0.0782 
     46 C46        32.0923  -47.0321  -56.1305 C.3       11 UNK        -0.0868 
     47 S47        31.9267  -46.0202  -57.6411 S.3       11 UNK        -0.2515 
     48 C48        32.3859  -44.3484  -57.0729 C.3       11 UNK         0.0199 
     49 N          31.1824  -49.0864  -55.0415 N.am      5 UNK        -0.4607 
     50 C          30.3507  -50.0859  -54.7136 C.2       4 UNK         0.5031 
     51 O          29.1807  -50.1436  -55.0950 O.2       4 UNK        -0.5119 
     52 CA         30.9012  -51.1791  -53.7767 C.3       4 UNK         0.0263 
     53 CB         30.1293  -52.5093  -53.9046 C.3       4 UNK        -0.1967 
     54 N          32.3475  -51.3959  -53.9102 N.am      4 UNK        -0.4237 
     55 C          33.0271  -51.7943  -54.9956 C.2       3 UNK         0.4908 
     56 O          32.5028  -52.0660  -56.0769 O.2       3 UNK        -0.5102 
     57 CA         34.5617  -51.8613  -54.8415 C.3       3 UNK         0.0241 
     58 CB         35.2590  -52.4340  -56.0902 C.3       3 UNK        -0.1971 
     59 N          35.1409  -50.5479  -54.5365 N.am      3 UNK        -0.4139 
     60 C          35.0669  -49.9206  -53.3551 C.2       2 UNK         0.5016 
     61 O          34.5134  -50.4104  -52.3670 O.2       2 UNK        -0.5319 
     62 CA         35.6603  -48.5078  -53.2526 C.3       2 UNK         0.0286 
     63 CB         36.0579  -47.8710  -54.6015 C.3       2 UNK        -0.1963 
     64 N          34.6742  -47.6666  -52.5838 N.am      2 UNK        -0.4790 
     65 C          34.9240  -46.7028  -51.6958 C.2       1 UNK         0.5024 
     66 O          36.0588  -46.3526  -51.3686 O.2       1 UNK        -0.4888 
     67 H67        31.5747  -49.6220  -50.0936 H         1 UNK         0.0892 
     68 H68        30.6767  -48.2358  -49.4566 H         1 UNK         0.0892 
     69 H69        30.1444  -49.0315  -50.9380 H         1 UNK         0.0892 
     70 H70        32.6946  -47.0129  -49.5108 H         1 UNK         0.3107 
     71 H71        34.0812  -45.4803  -50.1847 H         1 UNK         0.0773 
     72 H72        32.6549  -45.4276  -52.8913 H         1 UNK         0.0680 
     73 H73        33.9095  -44.3155  -52.4025 H         1 UNK         0.0680 
     74 H74        32.8542  -42.0949  -52.5416 H         1 UNK         0.0650 
     75 H75        31.2667  -41.6652  -51.9602 H         1 UNK         0.0650 
     76 H76        33.1092  -43.4654  -54.6042 H         1 UNK         0.1397 
     77 H77        29.6644  -44.0330  -57.0871 H         1 UNK         0.1363 
     78 H78        29.2281  -42.3807  -53.1517 H         1 UNK         0.1355 
     79 H79        27.2841  -43.1736  -54.3618 H         1 UNK         0.0707 
     80 H80        27.4311  -43.9492  -55.9081 H         1 UNK         0.0707 
     81 H81        27.5481  -41.0272  -58.4301 H         1 UNK         0.1034 
     82 H82        28.3154  -42.5129  -58.0272 H         1 UNK         0.1034 
     83 H83        25.4928  -43.0042  -57.6002 H         1 UNK         0.0482 
     84 H84        24.0700  -40.2906  -59.4765 H         1 UNK         0.3460 
     85 H85        24.7205  -40.6386  -57.8941 H         1 UNK         0.3460 
     86 H86        26.9221  -43.9139  -60.0041 H         1 UNK         0.2989 
     87 H87        26.4805  -46.5018  -60.2028 H         1 UNK         0.0559 
     88 H88        28.5851  -45.2119  -60.4828 H         1 UNK         0.0848 
     89 H89        28.9960  -46.9064  -60.3217 H         1 UNK         0.0848 
     90 H90        29.2056  -45.8198  -58.9528 H         1 UNK         0.0848 
     91 H91        27.4328  -47.4711  -57.5658 H         1 UNK         0.3144 
     92 H92        26.1847  -50.7097  -58.2376 H         1 UNK         0.0727 
     93 H93        28.4269  -51.5993  -57.6308 H         1 UNK         0.0790 
     94 H94        29.1736  -50.0579  -58.0449 H         1 UNK         0.0790 
     95 H95        28.4168  -51.0359  -59.2946 H         1 UNK         0.0790 
     96 H96        27.7370  -49.7628  -56.0461 H         1 UNK         0.3215 
     97 H97        24.9184  -48.6155  -54.1284 H         1 UNK         0.0863 
     98 H98        25.8677  -50.3602  -52.6350 H         1 UNK         0.0808 
     99 H99        26.7572  -51.0662  -53.9829 H         1 UNK         0.0808 
    100 H100       24.9992  -51.0941  -53.9734 H         1 UNK         0.0808 
    101 H101       27.9085  -48.8008  -54.2007 H         1 UNK         0.3118 
    102 H102       28.2695  -45.3672  -53.8401 H         1 UNK         0.0546 
    103 H103       28.6565  -47.2449  -51.4601 H         1 UNK         0.0828 
    104 H104       27.8236  -45.6995  -51.4398 H         1 UNK         0.0828 
    105 H105       29.5525  -45.7480  -51.7355 H         1 UNK         0.0828 
    106 H106       30.2418  -47.3520  -53.5001 H         1 UNK         0.3005 
    107 H107       30.5885  -48.3818  -56.8743 H         1 UNK         0.1257 
    108 H108       32.9883  -47.6397  -56.2614 H         1 UNK         0.0775 
    109 H109       32.2801  -46.4053  -55.2567 H         1 UNK         0.0775 
    110 H110       33.4277  -44.3684  -56.7491 H         1 UNK         0.0840 
    111 H111       32.3465  -43.6690  -57.9254 H         1 UNK         0.0840 
    112 H112       32.0947  -49.0777  -54.6122 H         1 UNK         0.2987 
    113 H113       30.7462  -50.8054  -52.7639 H         1 UNK         0.0785 
    114 H114       29.0752  -52.3766  -53.6580 H         1 UNK         0.0798 
    115 H115       30.5256  -53.2654  -53.2271 H         1 UNK         0.0798 
    116 H116       30.1767  -52.9079  -54.9186 H         1 UNK         0.0798 
    117 H117       32.9098  -51.1470  -53.0985 H         1 UNK         0.3079 
    118 H118       34.7715  -52.5360  -54.0083 H         1 UNK         0.0794 
    119 H119       36.3334  -52.5338  -55.9342 H         1 UNK         0.0786 
    120 H120       35.1038  -51.8030  -56.9664 H         1 UNK         0.0786 
    121 H121       34.8758  -53.4266  -56.3309 H         1 UNK         0.0786 
    122 H122       35.5863  -50.0668  -55.3046 H         1 UNK         0.3032 
    123 H123       36.5524  -48.5931  -52.6280 H         1 UNK         0.1094 
    124 H124       35.2107  -47.7934  -55.2832 H         1 UNK         0.0794 
    125 H125       36.4512  -46.8648  -54.4550 H         1 UNK         0.0794 
    126 H126       36.8421  -48.4436  -55.0982 H         1 UNK         0.0794 
    127 H127       33.6965  -47.9156  -52.7205 H         1 UNK         0.3016 
@<TRIPOS>BOND
     1    1    2 1    
     2    1   67 1    
     3    1   68 1    
     4    1   69 1    
     5    2    3 2    
     6    2    4 am   BACKBONE|DICT|INTERRES
     7    4    5 1    
     8    4   70 1    
     9    5    6 1    
    10    5   65 1    
    11    5   71 1    
    12    6    7 1    
    13    6   72 1    
    14    6   73 1    
    15    7    8 1    
    16    8    9 1    
    17    8   74 1    
    18    8   75 1    
    19    9   10 ar   
    20    9   14 ar   
    21   10   11 ar   
    22   10   76 1    
    23   11   12 ar   
    24   11   48 1    
    25   12   13 ar   
    26   12   77 1    
    27   13   14 ar   
    28   13   15 1    
    29   14   78 1    
    30   15   16 1    
    31   15   79 1    
    32   15   80 1    
    33   16   17 1    
    34   17   18 1    
    35   17   81 1    
    36   17   82 1    
    37   18   19 1    
    38   18   22 1    
    39   18   83 1    
    40   19   20 am   BACKBONE|DICT|INTERRES
    41   19   21 2    
    42   20   84 1    
    43   20   85 1    
    44   22   23 am   BACKBONE|DICT|INTERRES
    45   22   86 1    
    46   23   24 2    
    47   23   25 1    
    48   25   26 1    
    49   25   27 1    
    50   25   87 1    
    51   26   88 1    
    52   26   89 1    
    53   26   90 1    
    54   27   28 am   BACKBONE|DICT|INTERRES
    55   27   91 1    
    56   28   29 2    
    57   28   30 1    
    58   30   31 1    
    59   30   32 1    
    60   30   92 1    
    61   31   93 1    
    62   31   94 1    
    63   31   95 1    
    64   32   33 am   BACKBONE|DICT|INTERRES
    65   32   96 1    
    66   33   34 2    
    67   33   35 1    
    68   35   36 1    
    69   35   37 1    
    70   35   97 1    
    71   36   98 1    
    72   36   99 1    
    73   36  100 1    
    74   37   38 am   BACKBONE|DICT|INTERRES
    75   37  101 1    
    76   38   39 2    
    77   38   40 1    
    78   40   41 1    
    79   40   42 1    
    80   40  102 1    
    81   41  103 1    
    82   41  104 1    
    83   41  105 1    
    84   42   43 am   BACKBONE|DICT|INTERRES
    85   42  106 1    
    86   43   44 2    
    87   43   45 1    
    88   45   46 1    
    89   45   49 1    
    90   45  107 1    
    91   46   47 1    
    92   46  108 1    
    93   46  109 1    
    94   47   48 1    
    95   48  110 1    
    96   48  111 1    
    97   49   50 am   BACKBONE|DICT|INTERRES
    98   49  112 1    
    99   50   51 2    
   100   50   52 1    
   101   52   53 1    
   102   52   54 1    
   103   52  113 1    
   104   53  114 1    
   105   53  115 1    
   106   53  116 1    
   107   54   55 am   BACKBONE|DICT|INTERRES
   108   54  117 1    
   109   55   56 2    
   110   55   57 1    
   111   57   58 1    
   112   57   59 1    
   113   57  118 1    
   114   58  119 1    
   115   58  120 1    
   116   58  121 1    
   117   59   60 am   BACKBONE|DICT|INTERRES
   118   59  122 1    
   119   60   61 2    
   120   60   62 1    
   121   62   63 1    
   122   62   64 1    
   123   62  123 1    
   124   63  124 1    
   125   63  125 1    
   126   63  126 1    
   127   64   65 am   BACKBONE|DICT|INTERRES
   128   64  127 1    
   129   65   66 2    
@<TRIPOS>SUBSTRUCTURE
     1 UNK         1 GROUP             0       ****    0 ROOT    
