@<TRIPOS>MOLECULE
3R134
127   129    1
SMALL
USER_CHARGES


@<TRIPOS>ATOM
      1 CA         33.3518  -42.3697  -52.9984 C.3       0 UNK        -0.1968 
      2 C          34.4821  -43.3755  -53.1578 C.2       0 UNK         0.4852 
      3 O          35.6017  -43.1161  -52.7129 O.2       0 UNK        -0.5359 
      4 N          34.1980  -44.5116  -53.8055 N.am      1 UNK        -0.4300 
      5 CA         35.1392  -45.6087  -54.0494 C.3       1 UNK         0.0863 
      6 C6         34.5639  -46.6681  -55.0254 C.3       11 UNK        -0.0953 
      7 S7         33.9673  -45.9803  -56.6035 S.3       11 UNK        -0.2369 
      8 C8         32.1966  -46.3969  -56.5291 C.3       11 UNK         0.0226 
      9 C9         31.4126  -45.4011  -55.6868 C.ar      11 UNK        -0.0699 
     10 C10        31.2044  -45.6229  -54.3212 C.ar      11 UNK        -0.0804 
     11 C11        30.4475  -44.7229  -53.5598 C.ar      11 UNK        -0.0871 
     12 C12        29.9134  -43.5881  -54.1785 C.ar      11 UNK        -0.1008 
     13 C13        30.1290  -43.3475  -55.5377 C.ar      11 UNK        -0.0735 
     14 C14        30.8783  -44.2578  -56.2862 C.ar      11 UNK        -0.0945 
     15 C15        29.5667  -42.0970  -56.1972 C.3       11 UNK         0.0169 
     16 S16        28.1131  -42.4673  -57.2257 S.3       11 UNK        -0.2669 
     17 C17        26.8843  -42.9443  -55.9572 C.3       11 UNK        -0.0850 
     18 CA         25.4252  -42.9967  -56.4863 C.3       10 UNK         0.0855 
     19 C          24.8311  -41.5792  -56.7287 C.2       10 UNK         0.5543 
     20 N          24.4475  -40.8841  -55.6662 N.am      10 UNK        -0.7343 
     21 O          24.7370  -41.0942  -57.8552 O.2       10 UNK        -0.5027 
     22 N          25.3296  -43.8857  -57.6493 N.am      10 UNK        -0.4495 
     23 C          24.2036  -44.3526  -58.2020 C.2       10 UNK         0.4903 
     24 O          23.0757  -44.1377  -57.7568 O.2       10 UNK        -0.4860 
     25 CA         24.3640  -45.2207  -59.4663 C.3       9 UNK         0.0227 
     26 CB         24.1089  -44.3794  -60.7276 C.3       9 UNK        -0.1964 
     27 N          25.6843  -45.8563  -59.5662 N.am      9 UNK        -0.4231 
     28 C          26.1028  -46.8532  -58.7747 C.2       9 UNK         0.5014 
     29 O          25.3867  -47.4057  -57.9360 O.2       9 UNK        -0.5270 
     30 CA         27.5745  -47.2633  -58.9310 C.3       8 UNK         0.0284 
     31 CB         28.4964  -46.2158  -58.2808 C.3       8 UNK        -0.1977 
     32 N          27.8041  -48.5498  -58.2770 N.am      8 UNK        -0.4342 
     33 C          28.0185  -49.7128  -58.9065 C.2       8 UNK         0.5039 
     34 O          28.1095  -49.8185  -60.1309 O.2       8 UNK        -0.5547 
     35 CA         28.1705  -50.9811  -58.0421 C.3       7 UNK         0.0281 
     36 CB         29.6460  -51.4084  -57.9747 C.3       7 UNK        -0.1963 
     37 N          27.6548  -50.8206  -56.6804 N.am      7 UNK        -0.4444 
     38 C          26.3507  -50.7671  -56.3666 C.2       7 UNK         0.5104 
     39 O          25.4496  -50.9774  -57.1790 O.2       7 UNK        -0.5100 
     40 CA         25.9742  -50.4112  -54.9129 C.3       6 UNK         0.0396 
     41 CB         25.4720  -51.6594  -54.1690 C.3       6 UNK        -0.1801 
     42 N          27.0574  -49.7999  -54.1358 N.am      6 UNK        -0.4747 
     43 C          27.6664  -48.6366  -54.4137 C.2       6 UNK         0.5012 
     44 O          27.3419  -47.9050  -55.3472 O.2       6 UNK        -0.5003 
     45 CA         28.8890  -48.2623  -53.5534 C.3       5 UNK         0.0782 
     46 C46        28.5285  -47.1745  -52.5120 C.3       11 UNK        -0.0868 
     47 S47        29.9870  -46.6558  -51.5420 S.3       11 UNK        -0.2515 
     48 C48        30.2204  -44.9225  -52.0620 C.3       11 UNK         0.0199 
     49 N          29.5382  -49.4261  -52.9331 N.am      5 UNK        -0.4607 
     50 C          30.1528  -50.4103  -53.5988 C.2       4 UNK         0.5031 
     51 O          30.1709  -50.4991  -54.8275 O.2       4 UNK        -0.5119 
     52 CA         30.8490  -51.4839  -52.7464 C.3       4 UNK         0.0263 
     53 CB         30.2971  -52.8819  -53.0738 C.3       4 UNK        -0.1967 
     54 N          32.2997  -51.4714  -52.9468 N.am      4 UNK        -0.4237 
     55 C          33.1054  -50.4504  -52.6251 C.2       3 UNK         0.4908 
     56 O          32.7179  -49.4149  -52.0765 O.2       3 UNK        -0.5102 
     57 CA         34.5904  -50.6096  -52.9790 C.3       3 UNK         0.0241 
     58 CB         34.7946  -50.6804  -54.5070 C.3       3 UNK        -0.1971 
     59 N          35.3121  -49.4644  -52.4325 N.am      3 UNK        -0.4139 
     60 C          36.6301  -49.3573  -52.2364 C.2       2 UNK         0.5016 
     61 O          37.4290  -50.2711  -52.4506 O.2       2 UNK        -0.5319 
     62 CA         37.1341  -47.9706  -51.7838 C.3       2 UNK         0.0286 
     63 CB         38.6648  -47.9145  -51.6208 C.3       2 UNK        -0.1963 
     64 N          36.7205  -46.9585  -52.7612 N.am      2 UNK        -0.4790 
     65 C          35.5413  -46.3240  -52.7445 C.2       1 UNK         0.5024 
     66 O          34.7459  -46.3957  -51.8047 O.2       1 UNK        -0.4888 
     67 H67        32.9098  -42.4537  -52.0061 H         1 UNK         0.0892 
     68 H68        33.7272  -41.3542  -53.1214 H         1 UNK         0.0892 
     69 H69        32.5688  -42.5267  -53.7395 H         1 UNK         0.0892 
     70 H70        33.2610  -44.6632  -54.1528 H         1 UNK         0.3107 
     71 H71        36.0373  -45.1749  -54.4945 H         1 UNK         0.0773 
     72 H72        35.3314  -47.4038  -55.2735 H         1 UNK         0.0680 
     73 H73        33.7609  -47.2345  -54.5500 H         1 UNK         0.0680 
     74 H74        32.0602  -47.4125  -56.1538 H         1 UNK         0.0650 
     75 H75        31.8064  -46.4018  -57.5474 H         1 UNK         0.0650 
     76 H76        31.6269  -46.5004  -53.8506 H         1 UNK         0.1397 
     77 H77        29.3367  -42.8807  -53.5980 H         1 UNK         0.1363 
     78 H78        31.0393  -44.0774  -57.3404 H         1 UNK         0.1355 
     79 H79        30.3355  -41.6449  -56.8254 H         1 UNK         0.0707 
     80 H80        29.3039  -41.3456  -55.4508 H         1 UNK         0.0707 
     81 H81        27.1644  -43.9276  -55.5747 H         1 UNK         0.1034 
     82 H82        26.9608  -42.2666  -55.1050 H         1 UNK         0.1034 
     83 H83        24.8156  -43.4555  -55.7051 H         1 UNK         0.0482 
     84 H84        24.5176  -41.2670  -54.7363 H         1 UNK         0.3460 
     85 H85        24.0688  -39.9592  -55.7982 H         1 UNK         0.3460 
     86 H86        26.2057  -44.0821  -58.1081 H         1 UNK         0.2989 
     87 H87        23.6083  -46.0080  -59.4239 H         1 UNK         0.0559 
     88 H88        24.8359  -43.5726  -60.8305 H         1 UNK         0.0848 
     89 H89        23.1192  -43.9212  -60.6958 H         1 UNK         0.0848 
     90 H90        24.1515  -44.9899  -61.6298 H         1 UNK         0.0848 
     91 H91        26.3272  -45.4661  -60.2410 H         1 UNK         0.3144 
     92 H92        27.8064  -47.3250  -59.9963 H         1 UNK         0.0727 
     93 H93        29.5414  -46.5138  -58.3559 H         1 UNK         0.0790 
     94 H94        28.2676  -46.0702  -57.2237 H         1 UNK         0.0790 
     95 H95        28.4057  -45.2457  -58.7703 H         1 UNK         0.0790 
     96 H96        27.6413  -48.5525  -57.2746 H         1 UNK         0.3215 
     97 H97        27.6069  -51.7793  -58.5301 H         1 UNK         0.0863 
     98 H98        29.7726  -52.3150  -57.3826 H         1 UNK         0.0808 
     99 H99        30.2709  -50.6304  -57.5344 H         1 UNK         0.0808 
    100 H100       30.0381  -51.6142  -58.9716 H         1 UNK         0.0808 
    101 H101       28.3432  -50.6588  -55.9531 H         1 UNK         0.3118 
    102 H102       25.1572  -49.6883  -54.9616 H         1 UNK         0.0546 
    103 H103       24.6394  -52.1226  -54.7005 H         1 UNK         0.0828 
    104 H104       25.1151  -51.4110  -53.1694 H         1 UNK         0.0828 
    105 H105       26.2544  -52.4130  -54.0710 H         1 UNK         0.0828 
    106 H106       27.4066  -50.3333  -53.3526 H         1 UNK         0.3005 
    107 H107       29.6110  -47.8366  -54.2517 H         1 UNK         0.1257 
    108 H108       27.7721  -47.5438  -51.8170 H         1 UNK         0.0775 
    109 H109       28.0914  -46.3023  -53.0025 H         1 UNK         0.0775 
    110 H110       29.3527  -44.3506  -51.7292 H         1 UNK         0.0840 
    111 H111       31.0794  -44.5155  -51.5271 H         1 UNK         0.0840 
    112 H112       29.6072  -49.4013  -51.9256 H         1 UNK         0.2987 
    113 H113       30.6548  -51.2820  -51.6907 H         1 UNK         0.0785 
    114 H114       29.2175  -52.9208  -52.9222 H         1 UNK         0.0798 
    115 H115       30.7404  -53.6444  -52.4330 H         1 UNK         0.0798 
    116 H116       30.4895  -53.1610  -54.1108 H         1 UNK         0.0798 
    117 H117       32.6943  -52.2721  -53.4185 H         1 UNK         0.3079 
    118 H118       34.9623  -51.5224  -52.5089 H         1 UNK         0.0794 
    119 H119       34.3917  -49.7991  -55.0074 H         1 UNK         0.0786 
    120 H120       34.2989  -51.5523  -54.9350 H         1 UNK         0.0786 
    121 H121       35.8504  -50.7575  -54.7672 H         1 UNK         0.0786 
    122 H122       34.7074  -48.6913  -52.1705 H         1 UNK         0.3032 
    123 H123       36.6852  -47.7597  -50.8101 H         1 UNK         0.1094 
    124 H124       39.1814  -48.1320  -52.5565 H         1 UNK         0.0794 
    125 H125       38.9904  -46.9319  -51.2787 H         1 UNK         0.0794 
    126 H126       39.0053  -48.6421  -50.8828 H         1 UNK         0.0794 
    127 H127       37.2993  -46.8803  -53.5862 H         1 UNK         0.3016 
@<TRIPOS>BOND
     1    1    2 1    
     2    1   67 1    
     3    1   68 1    
     4    1   69 1    
     5    2    3 2    
     6    2    4 am   BACKBONE|DICT|INTERRES
     7    4    5 1    
     8    4   70 1    
     9    5    6 1    
    10    5   65 1    
    11    5   71 1    
    12    6    7 1    
    13    6   72 1    
    14    6   73 1    
    15    7    8 1    
    16    8    9 1    
    17    8   74 1    
    18    8   75 1    
    19    9   10 ar   
    20    9   14 ar   
    21   10   11 ar   
    22   10   76 1    
    23   11   12 ar   
    24   11   48 1    
    25   12   13 ar   
    26   12   77 1    
    27   13   14 ar   
    28   13   15 1    
    29   14   78 1    
    30   15   16 1    
    31   15   79 1    
    32   15   80 1    
    33   16   17 1    
    34   17   18 1    
    35   17   81 1    
    36   17   82 1    
    37   18   19 1    
    38   18   22 1    
    39   18   83 1    
    40   19   20 am   BACKBONE|DICT|INTERRES
    41   19   21 2    
    42   20   84 1    
    43   20   85 1    
    44   22   23 am   BACKBONE|DICT|INTERRES
    45   22   86 1    
    46   23   24 2    
    47   23   25 1    
    48   25   26 1    
    49   25   27 1    
    50   25   87 1    
    51   26   88 1    
    52   26   89 1    
    53   26   90 1    
    54   27   28 am   BACKBONE|DICT|INTERRES
    55   27   91 1    
    56   28   29 2    
    57   28   30 1    
    58   30   31 1    
    59   30   32 1    
    60   30   92 1    
    61   31   93 1    
    62   31   94 1    
    63   31   95 1    
    64   32   33 am   BACKBONE|DICT|INTERRES
    65   32   96 1    
    66   33   34 2    
    67   33   35 1    
    68   35   36 1    
    69   35   37 1    
    70   35   97 1    
    71   36   98 1    
    72   36   99 1    
    73   36  100 1    
    74   37   38 am   BACKBONE|DICT|INTERRES
    75   37  101 1    
    76   38   39 2    
    77   38   40 1    
    78   40   41 1    
    79   40   42 1    
    80   40  102 1    
    81   41  103 1    
    82   41  104 1    
    83   41  105 1    
    84   42   43 am   BACKBONE|DICT|INTERRES
    85   42  106 1    
    86   43   44 2    
    87   43   45 1    
    88   45   46 1    
    89   45   49 1    
    90   45  107 1    
    91   46   47 1    
    92   46  108 1    
    93   46  109 1    
    94   47   48 1    
    95   48  110 1    
    96   48  111 1    
    97   49   50 am   BACKBONE|DICT|INTERRES
    98   49  112 1    
    99   50   51 2    
   100   50   52 1    
   101   52   53 1    
   102   52   54 1    
   103   52  113 1    
   104   53  114 1    
   105   53  115 1    
   106   53  116 1    
   107   54   55 am   BACKBONE|DICT|INTERRES
   108   54  117 1    
   109   55   56 2    
   110   55   57 1    
   111   57   58 1    
   112   57   59 1    
   113   57  118 1    
   114   58  119 1    
   115   58  120 1    
   116   58  121 1    
   117   59   60 am   BACKBONE|DICT|INTERRES
   118   59  122 1    
   119   60   61 2    
   120   60   62 1    
   121   62   63 1    
   122   62   64 1    
   123   62  123 1    
   124   63  124 1    
   125   63  125 1    
   126   63  126 1    
   127   64   65 am   BACKBONE|DICT|INTERRES
   128   64  127 1    
   129   65   66 2    
@<TRIPOS>SUBSTRUCTURE
     1 UNK         1 GROUP             0       ****    0 ROOT    
