@<TRIPOS>MOLECULE
3R134
127   129    1
SMALL
USER_CHARGES


@<TRIPOS>ATOM
      1 CA         32.5806  -48.9005  -58.7256 C.3       0 UNK        -0.1968 
      2 C          32.8673  -48.3581  -57.3338 C.2       0 UNK         0.4852 
      3 O          32.6550  -49.0668  -56.3507 O.2       0 UNK        -0.5359 
      4 N          33.3392  -47.1063  -57.2453 N.am      1 UNK        -0.4300 
      5 CA         33.6500  -46.4047  -55.9947 C.3       1 UNK         0.0863 
      6 C6         34.0260  -44.9252  -56.2603 C.3       11 UNK        -0.0953 
      7 S7         33.6630  -43.8611  -54.8235 S.3       11 UNK        -0.2369 
      8 C8         32.0324  -43.1734  -55.2766 C.3       11 UNK         0.0226 
      9 C9         30.9421  -43.2652  -54.2066 C.ar      11 UNK        -0.0699 
     10 C10        31.1332  -43.8500  -52.9452 C.ar      11 UNK        -0.0804 
     11 C11        30.0906  -43.8956  -52.0129 C.ar      11 UNK        -0.0871 
     12 C12        28.8418  -43.3654  -52.3520 C.ar      11 UNK        -0.1008 
     13 C13        28.6386  -42.7718  -53.6013 C.ar      11 UNK        -0.0735 
     14 C14        29.6903  -42.7281  -54.5181 C.ar      11 UNK        -0.0945 
     15 C15        27.2995  -42.1355  -53.9430 C.3       11 UNK         0.0169 
     16 S16        26.2558  -43.2418  -54.9380 S.3       11 UNK        -0.2669 
     17 C17        26.5855  -42.6761  -56.6426 C.3       11 UNK        -0.0850 
     18 CA         26.4427  -43.8208  -57.6895 C.3       10 UNK         0.0855 
     19 C          26.3938  -43.2955  -59.1587 C.2       10 UNK         0.5543 
     20 N          26.9337  -44.0060  -60.1431 N.am      10 UNK        -0.7343 
     21 O          25.8238  -42.2392  -59.4217 O.2       10 UNK        -0.5027 
     22 N          27.3824  -44.9335  -57.4692 N.am      10 UNK        -0.4495 
     23 C          28.7182  -44.8695  -57.5720 C.2       10 UNK         0.4903 
     24 O          29.3480  -43.8350  -57.7917 O.2       10 UNK        -0.4860 
     25 CA         29.4896  -46.1933  -57.4398 C.3       9 UNK         0.0227 
     26 CB         29.7925  -46.4765  -55.9655 C.3       9 UNK        -0.1964 
     27 N          28.7922  -47.3566  -57.9885 N.am      9 UNK        -0.4231 
     28 C          28.3248  -47.5212  -59.2306 C.2       9 UNK         0.5014 
     29 O          28.4172  -46.6722  -60.1178 O.2       9 UNK        -0.5270 
     30 CA         27.6040  -48.8514  -59.5268 C.3       8 UNK         0.0284 
     31 CB         28.6157  -49.9852  -59.7872 C.3       8 UNK        -0.1977 
     32 N          26.6036  -49.2382  -58.5163 N.am      8 UNK        -0.4342 
     33 C          26.7920  -49.5534  -57.2265 C.2       8 UNK         0.5039 
     34 O          27.8956  -49.6070  -56.6792 O.2       8 UNK        -0.5547 
     35 CA         25.5311  -49.7965  -56.3850 C.3       7 UNK         0.0281 
     36 CB         25.5020  -51.2363  -55.8471 C.3       7 UNK        -0.1963 
     37 N          25.4732  -48.8602  -55.2620 N.am      7 UNK        -0.4444 
     38 C          25.3533  -47.5306  -55.3653 C.2       7 UNK         0.5104 
     39 O          25.2500  -46.9314  -56.4367 O.2       7 UNK        -0.5100 
     40 CA         25.3783  -46.7291  -54.0523 C.3       6 UNK         0.0396 
     41 CB         24.2887  -47.1826  -53.0575 C.3       6 UNK        -0.1801 
     42 N          26.7159  -46.6883  -53.4432 N.am      6 UNK        -0.4747 
     43 C          27.3937  -47.7154  -52.9109 C.2       6 UNK         0.5012 
     44 O          26.9212  -48.8492  -52.7726 O.2       6 UNK        -0.5003 
     45 CA         28.8395  -47.4428  -52.4607 C.3       5 UNK         0.0782 
     46 C46        28.8803  -46.8540  -51.0307 C.3       11 UNK        -0.0868 
     47 S47        30.5492  -46.2638  -50.5943 S.3       11 UNK        -0.2515 
     48 C48        30.3345  -44.4550  -50.6154 C.3       11 UNK         0.0199 
     49 N          29.5300  -48.7262  -52.5663 N.am      5 UNK        -0.4607 
     50 C          30.7161  -48.9419  -53.1365 C.2       4 UNK         0.5031 
     51 O          31.4927  -48.0488  -53.4852 O.2       4 UNK        -0.5119 
     52 CA         31.0641  -50.4179  -53.3786 C.3       4 UNK         0.0263 
     53 CB         30.1610  -51.0320  -54.4649 C.3       4 UNK        -0.1967 
     54 N          32.4528  -50.5170  -53.8041 N.am      4 UNK        -0.4237 
     55 C          33.3142  -51.4868  -53.4792 C.2       3 UNK         0.4908 
     56 O          33.0120  -52.4910  -52.8330 O.2       3 UNK        -0.5102 
     57 CA         34.7734  -51.2846  -53.9258 C.3       3 UNK         0.0241 
     58 CB         34.9825  -51.7958  -55.3604 C.3       3 UNK        -0.1971 
     59 N          35.1742  -49.8787  -53.8440 N.am      3 UNK        -0.4139 
     60 C          35.3324  -49.1934  -52.7038 C.2       2 UNK         0.5016 
     61 O          35.3284  -49.7173  -51.5890 O.2       2 UNK        -0.5319 
     62 CA         35.4731  -47.6641  -52.8057 C.3       2 UNK         0.0286 
     63 CB         36.9489  -47.2376  -52.9342 C.3       2 UNK        -0.1963 
     64 N          34.6265  -47.0534  -53.8431 N.am      2 UNK        -0.4790 
     65 C          34.7445  -47.1227  -55.1762 C.2       1 UNK         0.5024 
     66 O          35.6530  -47.7228  -55.7561 O.2       1 UNK        -0.4888 
     67 H67        32.8471  -48.1880  -59.5058 H         1 UNK         0.0892 
     68 H68        33.1448  -49.8172  -58.8938 H         1 UNK         0.0892 
     69 H69        31.5199  -49.1292  -58.8225 H         1 UNK         0.0892 
     70 H70        33.5338  -46.5941  -58.0929 H         1 UNK         0.3107 
     71 H71        32.7285  -46.4309  -55.4092 H         1 UNK         0.0773 
     72 H72        35.0826  -44.8234  -56.5168 H         1 UNK         0.0680 
     73 H73        33.4857  -44.5371  -57.1249 H         1 UNK         0.0680 
     74 H74        31.6583  -43.6680  -56.1733 H         1 UNK         0.0650 
     75 H75        32.1749  -42.1258  -55.5453 H         1 UNK         0.0650 
     76 H76        32.0913  -44.2637  -52.6666 H         1 UNK         0.1397 
     77 H77        28.0348  -43.3853  -51.6320 H         1 UNK         0.1363 
     78 H78        29.5371  -42.2668  -55.4837 H         1 UNK         0.1355 
     79 H79        26.7617  -41.8881  -53.0265 H         1 UNK         0.0707 
     80 H80        27.4512  -41.1890  -54.4642 H         1 UNK         0.0707 
     81 H81        25.8742  -41.8748  -56.8501 H         1 UNK         0.1034 
     82 H82        27.5726  -42.2194  -56.7075 H         1 UNK         0.1034 
     83 H83        25.4562  -44.2611  -57.5402 H         1 UNK         0.0482 
     84 H84        27.4154  -44.8785  -59.9585 H         1 UNK         0.3460 
     85 H85        26.8803  -43.6557  -61.0861 H         1 UNK         0.3460 
     86 H86        26.9449  -45.8269  -57.2807 H         1 UNK         0.2989 
     87 H87        30.4332  -46.0898  -57.9785 H         1 UNK         0.0559 
     88 H88        28.8705  -46.6020  -55.4006 H         1 UNK         0.0848 
     89 H89        30.3821  -47.3853  -55.8483 H         1 UNK         0.0848 
     90 H90        30.3530  -45.6629  -55.5080 H         1 UNK         0.0848 
     91 H91        28.6304  -48.1379  -57.3513 H         1 UNK         0.3144 
     92 H92        27.0439  -48.6991  -60.4509 H         1 UNK         0.0727 
     93 H93        28.1112  -50.9019  -60.0925 H         1 UNK         0.0790 
     94 H94        29.2151  -50.2129  -58.9052 H         1 UNK         0.0790 
     95 H95        29.3066  -49.7140  -60.5865 H         1 UNK         0.0790 
     96 H96        25.6465  -49.1816  -58.8380 H         1 UNK         0.3215 
     97 H97        24.6446  -49.6392  -57.0030 H         1 UNK         0.0863 
     98 H98        24.5926  -51.4299  -55.2779 H         1 UNK         0.0808 
     99 H99        26.3547  -51.4408  -55.1977 H         1 UNK         0.0808 
    100 H100       25.5338  -51.9585  -56.6639 H         1 UNK         0.0808 
    101 H101       25.6934  -49.2285  -54.3427 H         1 UNK         0.3118 
    102 H102       25.1331  -45.7029  -54.3174 H         1 UNK         0.0546 
    103 H103       23.3006  -47.1192  -53.5147 H         1 UNK         0.0828 
    104 H104       24.2753  -46.5453  -52.1735 H         1 UNK         0.0828 
    105 H105       24.4197  -48.2112  -52.7225 H         1 UNK         0.0828 
    106 H106       27.1794  -45.7921  -53.5165 H         1 UNK         0.3005 
    107 H107       29.2873  -46.7241  -53.1495 H         1 UNK         0.1257 
    108 H108       28.5735  -47.6016  -50.2968 H         1 UNK         0.0775 
    109 H109       28.1763  -46.0260  -50.9292 H         1 UNK         0.0775 
    110 H110       29.5246  -44.1807  -49.9375 H         1 UNK         0.0840 
    111 H111       31.2347  -43.9953  -50.2048 H         1 UNK         0.0840 
    112 H112       28.9275  -49.5161  -52.3722 H         1 UNK         0.2987 
    113 H113       30.9268  -50.9545  -52.4374 H         1 UNK         0.0785 
    114 H114       29.1073  -50.9844  -54.1872 H         1 UNK         0.0798 
    115 H115       30.4032  -52.0809  -54.6357 H         1 UNK         0.0798 
    116 H116       30.2686  -50.5061  -55.4151 H         1 UNK         0.0798 
    117 H117       32.7646  -49.7351  -54.3742 H         1 UNK         0.3079 
    118 H118       35.4136  -51.8630  -53.2563 H         1 UNK         0.0794 
    119 H119       34.7070  -52.8481  -55.4427 H         1 UNK         0.0786 
    120 H120       36.0258  -51.7089  -55.6642 H         1 UNK         0.0786 
    121 H121       34.3766  -51.2426  -56.0792 H         1 UNK         0.0786 
    122 H122       35.2271  -49.3563  -54.7126 H         1 UNK         0.3032 
    123 H123       35.1026  -47.2627  -51.8606 H         1 UNK         0.1094 
    124 H124       37.0465  -46.1525  -52.9696 H         1 UNK         0.0794 
    125 H125       37.5269  -47.5873  -52.0778 H         1 UNK         0.0794 
    126 H126       37.4208  -47.6475  -53.8273 H         1 UNK         0.0794 
    127 H127       33.8054  -46.5817  -53.4856 H         1 UNK         0.3016 
@<TRIPOS>BOND
     1    1    2 1    
     2    1   67 1    
     3    1   68 1    
     4    1   69 1    
     5    2    3 2    
     6    2    4 am   BACKBONE|DICT|INTERRES
     7    4    5 1    
     8    4   70 1    
     9    5    6 1    
    10    5   65 1    
    11    5   71 1    
    12    6    7 1    
    13    6   72 1    
    14    6   73 1    
    15    7    8 1    
    16    8    9 1    
    17    8   74 1    
    18    8   75 1    
    19    9   10 ar   
    20    9   14 ar   
    21   10   11 ar   
    22   10   76 1    
    23   11   12 ar   
    24   11   48 1    
    25   12   13 ar   
    26   12   77 1    
    27   13   14 ar   
    28   13   15 1    
    29   14   78 1    
    30   15   16 1    
    31   15   79 1    
    32   15   80 1    
    33   16   17 1    
    34   17   18 1    
    35   17   81 1    
    36   17   82 1    
    37   18   19 1    
    38   18   22 1    
    39   18   83 1    
    40   19   20 am   BACKBONE|DICT|INTERRES
    41   19   21 2    
    42   20   84 1    
    43   20   85 1    
    44   22   23 am   BACKBONE|DICT|INTERRES
    45   22   86 1    
    46   23   24 2    
    47   23   25 1    
    48   25   26 1    
    49   25   27 1    
    50   25   87 1    
    51   26   88 1    
    52   26   89 1    
    53   26   90 1    
    54   27   28 am   BACKBONE|DICT|INTERRES
    55   27   91 1    
    56   28   29 2    
    57   28   30 1    
    58   30   31 1    
    59   30   32 1    
    60   30   92 1    
    61   31   93 1    
    62   31   94 1    
    63   31   95 1    
    64   32   33 am   BACKBONE|DICT|INTERRES
    65   32   96 1    
    66   33   34 2    
    67   33   35 1    
    68   35   36 1    
    69   35   37 1    
    70   35   97 1    
    71   36   98 1    
    72   36   99 1    
    73   36  100 1    
    74   37   38 am   BACKBONE|DICT|INTERRES
    75   37  101 1    
    76   38   39 2    
    77   38   40 1    
    78   40   41 1    
    79   40   42 1    
    80   40  102 1    
    81   41  103 1    
    82   41  104 1    
    83   41  105 1    
    84   42   43 am   BACKBONE|DICT|INTERRES
    85   42  106 1    
    86   43   44 2    
    87   43   45 1    
    88   45   46 1    
    89   45   49 1    
    90   45  107 1    
    91   46   47 1    
    92   46  108 1    
    93   46  109 1    
    94   47   48 1    
    95   48  110 1    
    96   48  111 1    
    97   49   50 am   BACKBONE|DICT|INTERRES
    98   49  112 1    
    99   50   51 2    
   100   50   52 1    
   101   52   53 1    
   102   52   54 1    
   103   52  113 1    
   104   53  114 1    
   105   53  115 1    
   106   53  116 1    
   107   54   55 am   BACKBONE|DICT|INTERRES
   108   54  117 1    
   109   55   56 2    
   110   55   57 1    
   111   57   58 1    
   112   57   59 1    
   113   57  118 1    
   114   58  119 1    
   115   58  120 1    
   116   58  121 1    
   117   59   60 am   BACKBONE|DICT|INTERRES
   118   59  122 1    
   119   60   61 2    
   120   60   62 1    
   121   62   63 1    
   122   62   64 1    
   123   62  123 1    
   124   63  124 1    
   125   63  125 1    
   126   63  126 1    
   127   64   65 am   BACKBONE|DICT|INTERRES
   128   64  127 1    
   129   65   66 2    
@<TRIPOS>SUBSTRUCTURE
     1 UNK         1 GROUP             0       ****    0 ROOT    
