@<TRIPOS>MOLECULE
3R134
127   129    1
SMALL
USER_CHARGES


@<TRIPOS>ATOM
      1 CA         35.8231  -48.5461  -56.8838 C.3       0 UNK        -0.1968 
      2 C          35.2326  -47.9464  -55.6172 C.2       0 UNK         0.4852 
      3 O          34.5856  -48.6600  -54.8501 O.2       0 UNK        -0.5359 
      4 N          35.4750  -46.6505  -55.3771 N.am      1 UNK        -0.4300 
      5 CA         34.9586  -45.8255  -54.2699 C.3       1 UNK         0.0863 
      6 C6         35.4986  -44.3773  -54.3825 C.3       11 UNK        -0.0953 
      7 S7         34.7634  -43.4828  -55.7931 S.3       11 UNK        -0.2369 
      8 C8         33.8728  -42.1289  -54.9571 C.3       11 UNK         0.0226 
      9 C9         32.4905  -42.5415  -54.4638 C.ar      11 UNK        -0.0699 
     10 C10        32.3482  -43.3350  -53.3207 C.ar      11 UNK        -0.0804 
     11 C11        31.0811  -43.6807  -52.8439 C.ar      11 UNK        -0.0871 
     12 C12        29.9451  -43.2066  -53.5041 C.ar      11 UNK        -0.1008 
     13 C13        30.0716  -42.4003  -54.6385 C.ar      11 UNK        -0.0735 
     14 C14        31.3446  -42.0832  -55.1230 C.ar      11 UNK        -0.0945 
     15 C15        28.8298  -41.8369  -55.3079 C.3       11 UNK         0.0169 
     16 S16        28.0996  -43.0210  -56.4745 S.3       11 UNK        -0.2669 
     17 C17        26.5348  -42.1462  -56.8323 C.3       11 UNK        -0.0850 
     18 CA         25.5770  -42.8979  -57.7924 C.3       10 UNK         0.0855 
     19 C          26.0483  -42.8191  -59.2711 C.2       10 UNK         0.5543 
     20 N          25.7240  -41.7353  -59.9633 N.am      10 UNK        -0.7343 
     21 O          26.7300  -43.7037  -59.7847 O.2       10 UNK        -0.5027 
     22 N          25.3447  -44.2745  -57.3428 N.am      10 UNK        -0.4495 
     23 C          24.2960  -45.0298  -57.6847 C.2       10 UNK         0.4903 
     24 O          23.3240  -44.6146  -58.3188 O.2       10 UNK        -0.4860 
     25 CA         24.3715  -46.5017  -57.2395 C.3       9 UNK         0.0227 
     26 CB         23.1725  -47.3494  -57.7145 C.3       9 UNK        -0.1964 
     27 N          25.6436  -47.1198  -57.6300 N.am      9 UNK        -0.4231 
     28 C          26.1209  -47.2819  -58.8760 C.2       9 UNK         0.5014 
     29 O          25.5208  -46.9637  -59.9035 O.2       9 UNK        -0.5270 
     30 CA         27.5032  -47.9444  -58.9926 C.3       8 UNK         0.0284 
     31 CB         28.6191  -46.9379  -58.6642 C.3       8 UNK        -0.1977 
     32 N          27.6237  -49.1122  -58.1203 N.am      8 UNK        -0.4342 
     33 C          26.9322  -50.2522  -58.2608 C.2       8 UNK         0.5039 
     34 O          26.2026  -50.5040  -59.2206 O.2       8 UNK        -0.5547 
     35 CA         27.0494  -51.2696  -57.1153 C.3       7 UNK         0.0281 
     36 CB         28.3346  -52.1048  -57.2410 C.3       7 UNK        -0.1963 
     37 N          27.0025  -50.6088  -55.8084 N.am      7 UNK        -0.4444 
     38 C          25.8867  -50.1140  -55.2532 C.2       7 UNK         0.5104 
     39 O          24.7660  -50.2324  -55.7479 O.2       7 UNK        -0.5100 
     40 CA         26.0357  -49.3612  -53.9195 C.3       6 UNK         0.0396 
     41 CB         25.7061  -50.2915  -52.7414 C.3       6 UNK        -0.1801 
     42 N          27.3686  -48.7869  -53.7189 N.am      6 UNK        -0.4747 
     43 C          27.8228  -47.6788  -54.3231 C.2       6 UNK         0.5012 
     44 O          27.1727  -47.0285  -55.1433 O.2       6 UNK        -0.5003 
     45 CA         29.2725  -47.2721  -53.9807 C.3       5 UNK         0.0782 
     46 C46        29.3348  -46.6752  -52.5502 C.3       11 UNK        -0.0868 
     47 S47        31.0350  -46.3128  -51.9875 S.3       11 UNK        -0.2515 
     48 C48        30.9499  -44.5388  -51.5958 C.3       11 UNK         0.0199 
     49 N          30.2205  -48.3825  -54.1446 N.am      5 UNK        -0.4607 
     50 C          30.3756  -49.1559  -55.2257 C.2       4 UNK         0.5031 
     51 O          29.6809  -49.0499  -56.2350 O.2       4 UNK        -0.5119 
     52 CA         31.4710  -50.2372  -55.1922 C.3       4 UNK         0.0263 
     53 CB         32.2592  -50.2587  -56.5139 C.3       4 UNK        -0.1967 
     54 N          32.4113  -50.1095  -54.0711 N.am      4 UNK        -0.4237 
     55 C          32.1863  -50.5737  -52.8344 C.2       3 UNK         0.4908 
     56 O          31.1046  -51.0521  -52.4911 O.2       3 UNK        -0.5102 
     57 CA         33.3252  -50.5348  -51.8017 C.3       3 UNK         0.0241 
     58 CB         33.9643  -51.9330  -51.6773 C.3       3 UNK        -0.1971 
     59 N          34.3696  -49.5284  -52.0461 N.am      3 UNK        -0.4139 
     60 C          35.1647  -49.0516  -51.0719 C.2       2 UNK         0.5016 
     61 O          35.0371  -49.3530  -49.8837 O.2       2 UNK        -0.5319 
     62 CA         36.3196  -48.1051  -51.4570 C.3       2 UNK         0.0286 
     63 CB         37.6356  -48.8912  -51.5766 C.3       2 UNK        -0.1963 
     64 N          36.0923  -47.3709  -52.6996 N.am      2 UNK        -0.4790 
     65 C          35.2056  -46.3783  -52.8452 C.2       1 UNK         0.5024 
     66 O          34.5815  -45.8951  -51.9005 O.2       1 UNK        -0.4888 
     67 H67        36.4369  -49.4119  -56.6367 H         1 UNK         0.0892 
     68 H68        36.4455  -47.8318  -57.4224 H         1 UNK         0.0892 
     69 H69        35.0267  -48.8733  -57.5511 H         1 UNK         0.0892 
     70 H70        36.0222  -46.1357  -56.0525 H         1 UNK         0.3107 
     71 H71        33.8723  -45.7999  -54.3819 H         1 UNK         0.0773 
     72 H72        36.5829  -44.3857  -54.5080 H         1 UNK         0.0680 
     73 H73        35.3250  -43.8060  -53.4700 H         1 UNK         0.0680 
     74 H74        34.4659  -41.7450  -54.1259 H         1 UNK         0.0650 
     75 H75        33.7840  -41.3008  -55.6619 H         1 UNK         0.0650 
     76 H76        33.2207  -43.6838  -52.7890 H         1 UNK         0.1397 
     77 H77        28.9604  -43.4509  -53.1300 H         1 UNK         0.1363 
     78 H78        31.4418  -41.4568  -55.9993 H         1 UNK         0.1355 
     79 H79        29.0673  -40.9115  -55.8353 H         1 UNK         0.0707 
     80 H80        28.0946  -41.5753  -54.5450 H         1 UNK         0.0707 
     81 H81        26.7617  -41.1493  -57.2158 H         1 UNK         0.1034 
     82 H82        26.0202  -41.9822  -55.8841 H         1 UNK         0.1034 
     83 H83        24.6154  -42.3823  -57.7426 H         1 UNK         0.0482 
     84 H84        26.0313  -41.6569  -60.9202 H         1 UNK         0.3460 
     85 H85        25.1705  -40.9985  -59.5540 H         1 UNK         0.3460 
     86 H86        26.1185  -44.7056  -56.8567 H         1 UNK         0.2989 
     87 H87        24.3579  -46.4971  -56.1485 H         1 UNK         0.0559 
     88 H88        23.0929  -47.3705  -58.8018 H         1 UNK         0.0848 
     89 H89        22.2348  -46.9482  -57.3285 H         1 UNK         0.0848 
     90 H90        23.2535  -48.3788  -57.3649 H         1 UNK         0.0848 
     91 H91        26.2552  -47.3601  -56.8547 H         1 UNK         0.3144 
     92 H92        27.6333  -48.2774  -60.0244 H         1 UNK         0.0727 
     93 H93        29.6053  -47.3757  -58.8190 H         1 UNK         0.0790 
     94 H94        28.5664  -46.5952  -57.6298 H         1 UNK         0.0790 
     95 H95        28.5488  -46.0558  -59.3027 H         1 UNK         0.0790 
     96 H96        28.2719  -49.0312  -57.3368 H         1 UNK         0.3215 
     97 H97        26.1985  -51.9511  -57.1860 H         1 UNK         0.0863 
     98 H98        28.4085  -52.8432  -56.4426 H         1 UNK         0.0808 
     99 H99        29.2312  -51.4864  -57.2115 H         1 UNK         0.0808 
    100 H100       28.3497  -52.6486  -58.1865 H         1 UNK         0.0808 
    101 H101       27.8844  -50.4270  -55.3525 H         1 UNK         0.3118 
    102 H102       25.3079  -48.5466  -53.9209 H         1 UNK         0.0546 
    103 H103       24.7057  -50.7141  -52.8463 H         1 UNK         0.0828 
    104 H104       25.7303  -49.7552  -51.7927 H         1 UNK         0.0828 
    105 H105       26.4060  -51.1255  -52.6751 H         1 UNK         0.0828 
    106 H106       27.9830  -49.2706  -53.0786 H         1 UNK         0.3005 
    107 H107       29.5660  -46.4951  -54.6904 H         1 UNK         0.1257 
    108 H108       28.9056  -47.3669  -51.8227 H         1 UNK         0.0775 
    109 H109       28.7262  -45.7715  -52.4948 H         1 UNK         0.0775 
    110 H110       30.0243  -44.3152  -51.0629 H         1 UNK         0.0840 
    111 H111       31.7589  -44.2997  -50.9035 H         1 UNK         0.0840 
    112 H112       30.8424  -48.5363  -53.3645 H         1 UNK         0.2987 
    113 H113       30.9586  -51.1975  -55.1028 H         1 UNK         0.0785 
    114 H114       31.6142  -50.5249  -57.3522 H         1 UNK         0.0798 
    115 H115       33.0693  -50.9876  -56.4865 H         1 UNK         0.0798 
    116 H116       32.6894  -49.2826  -56.7377 H         1 UNK         0.0798 
    117 H117       33.2985  -49.6623  -54.3026 H         1 UNK         0.3079 
    118 H118       32.8425  -50.2967  -50.8510 H         1 UNK         0.0794 
    119 H119       34.5127  -52.2031  -52.5805 H         1 UNK         0.0786 
    120 H120       33.2066  -52.7005  -51.5126 H         1 UNK         0.0786 
    121 H121       34.6568  -51.9851  -50.8372 H         1 UNK         0.0786 
    122 H122       34.5177  -49.2144  -53.0015 H         1 UNK         0.3032 
    123 H123       36.4269  -47.3802  -50.6466 H         1 UNK         0.1094 
    124 H124       38.4789  -48.2277  -51.7694 H         1 UNK         0.0794 
    125 H125       37.8540  -49.4293  -50.6530 H         1 UNK         0.0794 
    126 H126       37.5948  -49.6276  -52.3803 H         1 UNK         0.0794 
    127 H127       36.5513  -47.7190  -53.5289 H         1 UNK         0.3016 
@<TRIPOS>BOND
     1    1    2 1    
     2    1   67 1    
     3    1   68 1    
     4    1   69 1    
     5    2    3 2    
     6    2    4 am   BACKBONE|DICT|INTERRES
     7    4    5 1    
     8    4   70 1    
     9    5    6 1    
    10    5   65 1    
    11    5   71 1    
    12    6    7 1    
    13    6   72 1    
    14    6   73 1    
    15    7    8 1    
    16    8    9 1    
    17    8   74 1    
    18    8   75 1    
    19    9   10 ar   
    20    9   14 ar   
    21   10   11 ar   
    22   10   76 1    
    23   11   12 ar   
    24   11   48 1    
    25   12   13 ar   
    26   12   77 1    
    27   13   14 ar   
    28   13   15 1    
    29   14   78 1    
    30   15   16 1    
    31   15   79 1    
    32   15   80 1    
    33   16   17 1    
    34   17   18 1    
    35   17   81 1    
    36   17   82 1    
    37   18   19 1    
    38   18   22 1    
    39   18   83 1    
    40   19   20 am   BACKBONE|DICT|INTERRES
    41   19   21 2    
    42   20   84 1    
    43   20   85 1    
    44   22   23 am   BACKBONE|DICT|INTERRES
    45   22   86 1    
    46   23   24 2    
    47   23   25 1    
    48   25   26 1    
    49   25   27 1    
    50   25   87 1    
    51   26   88 1    
    52   26   89 1    
    53   26   90 1    
    54   27   28 am   BACKBONE|DICT|INTERRES
    55   27   91 1    
    56   28   29 2    
    57   28   30 1    
    58   30   31 1    
    59   30   32 1    
    60   30   92 1    
    61   31   93 1    
    62   31   94 1    
    63   31   95 1    
    64   32   33 am   BACKBONE|DICT|INTERRES
    65   32   96 1    
    66   33   34 2    
    67   33   35 1    
    68   35   36 1    
    69   35   37 1    
    70   35   97 1    
    71   36   98 1    
    72   36   99 1    
    73   36  100 1    
    74   37   38 am   BACKBONE|DICT|INTERRES
    75   37  101 1    
    76   38   39 2    
    77   38   40 1    
    78   40   41 1    
    79   40   42 1    
    80   40  102 1    
    81   41  103 1    
    82   41  104 1    
    83   41  105 1    
    84   42   43 am   BACKBONE|DICT|INTERRES
    85   42  106 1    
    86   43   44 2    
    87   43   45 1    
    88   45   46 1    
    89   45   49 1    
    90   45  107 1    
    91   46   47 1    
    92   46  108 1    
    93   46  109 1    
    94   47   48 1    
    95   48  110 1    
    96   48  111 1    
    97   49   50 am   BACKBONE|DICT|INTERRES
    98   49  112 1    
    99   50   51 2    
   100   50   52 1    
   101   52   53 1    
   102   52   54 1    
   103   52  113 1    
   104   53  114 1    
   105   53  115 1    
   106   53  116 1    
   107   54   55 am   BACKBONE|DICT|INTERRES
   108   54  117 1    
   109   55   56 2    
   110   55   57 1    
   111   57   58 1    
   112   57   59 1    
   113   57  118 1    
   114   58  119 1    
   115   58  120 1    
   116   58  121 1    
   117   59   60 am   BACKBONE|DICT|INTERRES
   118   59  122 1    
   119   60   61 2    
   120   60   62 1    
   121   62   63 1    
   122   62   64 1    
   123   62  123 1    
   124   63  124 1    
   125   63  125 1    
   126   63  126 1    
   127   64   65 am   BACKBONE|DICT|INTERRES
   128   64  127 1    
   129   65   66 2    
@<TRIPOS>SUBSTRUCTURE
     1 UNK         1 GROUP             0       ****    0 ROOT    
