@<TRIPOS>MOLECULE
3R134
127   129    1
SMALL
USER_CHARGES


@<TRIPOS>ATOM
      1 CA         34.9390  -44.6772  -47.5214 C.3       0 UNK        -0.1968 
      2 C          34.8907  -44.7752  -49.0393 C.2       0 UNK         0.4852 
      3 O          35.8490  -44.3828  -49.7076 O.2       0 UNK        -0.5359 
      4 N          33.7804  -45.2858  -49.5863 N.am      1 UNK        -0.4300 
      5 CA         33.5746  -45.4991  -51.0227 C.3       1 UNK         0.0863 
      6 C6         32.0780  -45.7037  -51.3718 C.3       11 UNK        -0.0953 
      7 S7         31.0134  -44.3254  -50.8258 S.3       11 UNK        -0.2369 
      8 C8         31.3875  -43.0294  -52.0507 C.3       11 UNK         0.0226 
      9 C9         30.9391  -43.4085  -53.4542 C.ar      11 UNK        -0.0699 
     10 C10        31.8758  -43.8004  -54.4156 C.ar      11 UNK        -0.0804 
     11 C11        31.4677  -44.1424  -55.7088 C.ar      11 UNK        -0.0871 
     12 C12        30.1094  -44.0787  -56.0367 C.ar      11 UNK        -0.1008 
     13 C13        29.1643  -43.6872  -55.0844 C.ar      11 UNK        -0.0735 
     14 C14        29.5854  -43.3514  -53.7952 C.ar      11 UNK        -0.0945 
     15 C15        27.6848  -43.6608  -55.4313 C.3       11 UNK         0.0169 
     16 S16        27.1588  -42.0408  -56.0760 S.3       11 UNK        -0.2669 
     17 C17        27.5324  -42.1812  -57.8610 C.3       11 UNK        -0.0850 
     18 CA         26.2524  -42.4166  -58.7174 C.3       10 UNK         0.0855 
     19 C          26.5025  -42.2488  -60.2483 C.2       10 UNK         0.5543 
     20 N          25.7854  -42.9556  -61.1131 N.am      10 UNK        -0.7343 
     21 O          27.3301  -41.4407  -60.6631 O.2       10 UNK        -0.5027 
     22 N          25.5333  -43.6444  -58.3252 N.am      10 UNK        -0.4495 
     23 C          25.9766  -44.9007  -58.4688 C.2       10 UNK         0.4903 
     24 O          27.0202  -45.1985  -59.0528 O.2       10 UNK        -0.4860 
     25 CA         25.1227  -45.9790  -57.7769 C.3       9 UNK         0.0227 
     26 CB         23.6694  -46.0099  -58.3002 C.3       9 UNK        -0.1964 
     27 N          25.7413  -47.3091  -57.8081 N.am      9 UNK        -0.4231 
     28 C          25.8649  -48.1551  -58.8426 C.2       9 UNK         0.5014 
     29 O          25.4206  -47.9425  -59.9723 O.2       9 UNK        -0.5270 
     30 CA         26.5998  -49.4862  -58.5790 C.3       8 UNK         0.0284 
     31 CB         27.9882  -49.4743  -59.2404 C.3       8 UNK        -0.1977 
     32 N          26.7500  -49.8187  -57.1579 N.am      8 UNK        -0.4342 
     33 C          25.7498  -50.1563  -56.3313 C.2       8 UNK         0.5039 
     34 O          24.5798  -50.2909  -56.6907 O.2       8 UNK        -0.5547 
     35 CA         26.1079  -50.3445  -54.8470 C.3       7 UNK         0.0281 
     36 CB         26.5797  -51.7826  -54.5752 C.3       7 UNK        -0.1963 
     37 N          27.1242  -49.3926  -54.3873 N.am      7 UNK        -0.4444 
     38 C          26.9133  -48.0805  -54.2020 C.2       7 UNK         0.5104 
     39 O          25.8255  -47.5301  -54.3695 O.2       7 UNK        -0.5100 
     40 CA         28.1332  -47.2321  -53.7964 C.3       6 UNK         0.0396 
     41 CB         28.3216  -47.2303  -52.2722 C.3       6 UNK        -0.1801 
     42 N          29.3710  -47.6710  -54.4445 N.am      6 UNK        -0.4747 
     43 C          29.5928  -47.6027  -55.7662 C.2       6 UNK         0.5012 
     44 O          28.7896  -47.1256  -56.5674 O.2       6 UNK        -0.5003 
     45 CA         30.8856  -48.2650  -56.2817 C.3       5 UNK         0.0782 
     46 C46        32.1075  -47.3183  -56.2404 C.3       11 UNK        -0.0868 
     47 S47        32.0986  -46.1120  -57.6072 S.3       11 UNK        -0.2515 
     48 C48        32.5027  -44.5531  -56.7509 C.3       11 UNK         0.0199 
     49 N          31.1605  -49.5228  -55.5796 N.am      5 UNK        -0.4607 
     50 C          30.4256  -50.6348  -55.7191 C.2       4 UNK         0.5031 
     51 O          29.4112  -50.6744  -56.4151 O.2       4 UNK        -0.5119 
     52 CA         30.8343  -51.8983  -54.9341 C.3       4 UNK         0.0263 
     53 CB         30.7688  -53.1637  -55.8148 C.3       4 UNK        -0.1967 
     54 N          32.1226  -51.8065  -54.2337 N.am      4 UNK        -0.4237 
     55 C          33.3472  -51.6795  -54.7659 C.2       3 UNK         0.4908 
     56 O          33.5898  -51.6379  -55.9734 O.2       3 UNK        -0.5102 
     57 CA         34.4981  -51.5374  -53.7546 C.3       3 UNK         0.0241 
     58 CB         35.5843  -52.5975  -54.0064 C.3       3 UNK        -0.1971 
     59 N          35.1126  -50.2050  -53.7573 N.am      3 UNK        -0.4139 
     60 C          34.4730  -49.0324  -53.6369 C.2       2 UNK         0.5016 
     61 O          33.2444  -48.9098  -53.5982 O.2       2 UNK        -0.5319 
     62 CA         35.3688  -47.7818  -53.5494 C.3       2 UNK         0.0286 
     63 CB         35.7859  -47.2972  -54.9480 C.3       2 UNK        -0.1963 
     64 N          34.7091  -46.6813  -52.8416 N.am      2 UNK        -0.4790 
     65 C          34.4087  -46.6909  -51.5356 C.2       1 UNK         0.5024 
     66 O          34.7359  -47.5983  -50.7649 O.2       1 UNK        -0.4888 
     67 H67        35.7707  -45.2652  -47.1341 H         1 UNK         0.0892 
     68 H68        35.0822  -43.6409  -47.2164 H         1 UNK         0.0892 
     69 H69        34.0217  -45.0424  -47.0596 H         1 UNK         0.0892 
     70 H70        33.0303  -45.6026  -48.9893 H         1 UNK         0.3107 
     71 H71        33.9299  -44.6071  -51.5423 H         1 UNK         0.0773 
     72 H72        31.7022  -46.6139  -50.9004 H         1 UNK         0.0680 
     73 H73        31.9396  -45.8509  -52.4441 H         1 UNK         0.0680 
     74 H74        30.8806  -42.1116  -51.7496 H         1 UNK         0.0650 
     75 H75        32.4541  -42.8028  -52.0299 H         1 UNK         0.0650 
     76 H76        32.9246  -43.8336  -54.1559 H         1 UNK         0.1397 
     77 H77        29.7867  -44.3572  -57.0303 H         1 UNK         0.1363 
     78 H78        28.8588  -43.0514  -53.0525 H         1 UNK         0.1355 
     79 H79        27.4575  -44.4534  -56.1429 H         1 UNK         0.0707 
     80 H80        27.0955  -43.8836  -54.5406 H         1 UNK         0.0707 
     81 H81        28.0226  -41.2512  -58.1542 H         1 UNK         0.1034 
     82 H82        28.2638  -42.9689  -58.0397 H         1 UNK         0.1034 
     83 H83        25.5647  -41.6040  -58.4802 H         1 UNK         0.0482 
     84 H84        25.1059  -43.6222  -60.7836 H         1 UNK         0.3460 
     85 H85        25.9415  -42.8361  -62.1015 H         1 UNK         0.3460 
     86 H86        24.6626  -43.4917  -57.8375 H         1 UNK         0.2989 
     87 H87        25.0868  -45.7117  -56.7195 H         1 UNK         0.0559 
     88 H88        23.6272  -46.1330  -59.3827 H         1 UNK         0.0848 
     89 H89        23.1411  -45.0866  -58.0617 H         1 UNK         0.0848 
     90 H90        23.1036  -46.8252  -57.8489 H         1 UNK         0.0848 
     91 H91        26.2085  -47.5784  -56.9527 H         1 UNK         0.3144 
     92 H92        26.0090  -50.2782  -59.0438 H         1 UNK         0.0727 
     93 H93        28.6234  -48.6918  -58.8245 H         1 UNK         0.0790 
     94 H94        27.9083  -49.2917  -60.3128 H         1 UNK         0.0790 
     95 H95        28.5001  -50.4282  -59.1110 H         1 UNK         0.0790 
     96 H96        27.7001  -49.8315  -56.7959 H         1 UNK         0.3215 
     97 H97        25.1993  -50.1723  -54.2654 H         1 UNK         0.0863 
     98 H98        26.7890  -51.9398  -53.5170 H         1 UNK         0.0808 
     99 H99        27.4797  -52.0315  -55.1377 H         1 UNK         0.0808 
    100 H100       25.8114  -52.5019  -54.8620 H         1 UNK         0.0808 
    101 H101       28.0584  -49.7483  -54.2541 H         1 UNK         0.3118 
    102 H102       27.9386  -46.2062  -54.1108 H         1 UNK         0.0546 
    103 H103       29.1236  -46.5544  -51.9756 H         1 UNK         0.0828 
    104 H104       28.5579  -48.2235  -51.8891 H         1 UNK         0.0828 
    105 H105       27.4149  -46.8926  -51.7684 H         1 UNK         0.0828 
    106 H106       30.0824  -48.0833  -53.8577 H         1 UNK         0.3005 
    107 H107       30.7050  -48.5292  -57.3266 H         1 UNK         0.1257 
    108 H108       32.1916  -46.8198  -55.2729 H         1 UNK         0.0775 
    109 H109       33.0204  -47.9035  -56.3566 H         1 UNK         0.0775 
    110 H110       33.4921  -44.6510  -56.3013 H         1 UNK         0.0840 
    111 H111       32.5819  -43.7581  -57.4935 H         1 UNK         0.0840 
    112 H112       31.9557  -49.5233  -54.9465 H         1 UNK         0.2987 
    113 H113       30.0820  -52.0100  -54.1520 H         1 UNK         0.0785 
    114 H114       31.4468  -53.1013  -56.6664 H         1 UNK         0.0798 
    115 H115       29.7644  -53.3129  -56.2134 H         1 UNK         0.0798 
    116 H116       31.0246  -54.0576  -55.2461 H         1 UNK         0.0798 
    117 H117       32.0535  -51.7859  -53.2251 H         1 UNK         0.3079 
    118 H118       34.1020  -51.7019  -52.7504 H         1 UNK         0.0794 
    119 H119       36.0727  -52.4540  -54.9712 H         1 UNK         0.0786 
    120 H120       35.1578  -53.6016  -54.0040 H         1 UNK         0.0786 
    121 H121       36.3529  -52.5725  -53.2336 H         1 UNK         0.0786 
    122 H122       36.1203  -50.1908  -53.8187 H         1 UNK         0.3032 
    123 H123       36.2688  -48.0494  -52.9905 H         1 UNK         0.1094 
    124 H124       36.5273  -46.5006  -54.8823 H         1 UNK         0.0794 
    125 H125       36.2332  -48.1035  -55.5309 H         1 UNK         0.0794 
    126 H126       34.9398  -46.9136  -55.5169 H         1 UNK         0.0794 
    127 H127       34.3825  -45.9159  -53.4112 H         1 UNK         0.3016 
@<TRIPOS>BOND
     1    1    2 1    
     2    1   67 1    
     3    1   68 1    
     4    1   69 1    
     5    2    3 2    
     6    2    4 am   BACKBONE|DICT|INTERRES
     7    4    5 1    
     8    4   70 1    
     9    5    6 1    
    10    5   65 1    
    11    5   71 1    
    12    6    7 1    
    13    6   72 1    
    14    6   73 1    
    15    7    8 1    
    16    8    9 1    
    17    8   74 1    
    18    8   75 1    
    19    9   10 ar   
    20    9   14 ar   
    21   10   11 ar   
    22   10   76 1    
    23   11   12 ar   
    24   11   48 1    
    25   12   13 ar   
    26   12   77 1    
    27   13   14 ar   
    28   13   15 1    
    29   14   78 1    
    30   15   16 1    
    31   15   79 1    
    32   15   80 1    
    33   16   17 1    
    34   17   18 1    
    35   17   81 1    
    36   17   82 1    
    37   18   19 1    
    38   18   22 1    
    39   18   83 1    
    40   19   20 am   BACKBONE|DICT|INTERRES
    41   19   21 2    
    42   20   84 1    
    43   20   85 1    
    44   22   23 am   BACKBONE|DICT|INTERRES
    45   22   86 1    
    46   23   24 2    
    47   23   25 1    
    48   25   26 1    
    49   25   27 1    
    50   25   87 1    
    51   26   88 1    
    52   26   89 1    
    53   26   90 1    
    54   27   28 am   BACKBONE|DICT|INTERRES
    55   27   91 1    
    56   28   29 2    
    57   28   30 1    
    58   30   31 1    
    59   30   32 1    
    60   30   92 1    
    61   31   93 1    
    62   31   94 1    
    63   31   95 1    
    64   32   33 am   BACKBONE|DICT|INTERRES
    65   32   96 1    
    66   33   34 2    
    67   33   35 1    
    68   35   36 1    
    69   35   37 1    
    70   35   97 1    
    71   36   98 1    
    72   36   99 1    
    73   36  100 1    
    74   37   38 am   BACKBONE|DICT|INTERRES
    75   37  101 1    
    76   38   39 2    
    77   38   40 1    
    78   40   41 1    
    79   40   42 1    
    80   40  102 1    
    81   41  103 1    
    82   41  104 1    
    83   41  105 1    
    84   42   43 am   BACKBONE|DICT|INTERRES
    85   42  106 1    
    86   43   44 2    
    87   43   45 1    
    88   45   46 1    
    89   45   49 1    
    90   45  107 1    
    91   46   47 1    
    92   46  108 1    
    93   46  109 1    
    94   47   48 1    
    95   48  110 1    
    96   48  111 1    
    97   49   50 am   BACKBONE|DICT|INTERRES
    98   49  112 1    
    99   50   51 2    
   100   50   52 1    
   101   52   53 1    
   102   52   54 1    
   103   52  113 1    
   104   53  114 1    
   105   53  115 1    
   106   53  116 1    
   107   54   55 am   BACKBONE|DICT|INTERRES
   108   54  117 1    
   109   55   56 2    
   110   55   57 1    
   111   57   58 1    
   112   57   59 1    
   113   57  118 1    
   114   58  119 1    
   115   58  120 1    
   116   58  121 1    
   117   59   60 am   BACKBONE|DICT|INTERRES
   118   59  122 1    
   119   60   61 2    
   120   60   62 1    
   121   62   63 1    
   122   62   64 1    
   123   62  123 1    
   124   63  124 1    
   125   63  125 1    
   126   63  126 1    
   127   64   65 am   BACKBONE|DICT|INTERRES
   128   64  127 1    
   129   65   66 2    
@<TRIPOS>SUBSTRUCTURE
     1 UNK         1 GROUP             0       ****    0 ROOT    
