@<TRIPOS>MOLECULE
3R134
127   129    1
SMALL
USER_CHARGES


@<TRIPOS>ATOM
      1 CA         37.7352  -44.2628  -47.9738 C.3       0 UNK        -0.1968 
      2 C          37.5223  -44.6347  -49.4341 C.2       0 UNK         0.4852 
      3 O          38.4291  -45.1837  -50.0627 O.2       0 UNK        -0.5359 
      4 N          36.3359  -44.3335  -49.9784 N.am      1 UNK        -0.4300 
      5 CA         35.9300  -44.6781  -51.3450 C.3       1 UNK         0.0863 
      6 C6         34.7397  -43.7956  -51.8181 C.3       11 UNK        -0.0953 
      7 S7         34.8815  -43.2797  -53.5648 S.3       11 UNK        -0.2369 
      8 C8         33.7864  -44.4414  -54.4413 C.3       11 UNK         0.0226 
      9 C9         32.3204  -44.0357  -54.4020 C.ar      11 UNK        -0.0699 
     10 C10        31.4983  -44.4055  -53.3315 C.ar      11 UNK        -0.0804 
     11 C11        30.1438  -44.0578  -53.3200 C.ar      11 UNK        -0.0871 
     12 C12        29.6033  -43.3738  -54.4143 C.ar      11 UNK        -0.1008 
     13 C13        30.4059  -43.0339  -55.5073 C.ar      11 UNK        -0.0735 
     14 C14        31.7685  -43.3414  -55.4813 C.ar      11 UNK        -0.0945 
     15 C15        29.8025  -42.3593  -56.7296 C.3       11 UNK         0.0169 
     16 S16        29.8207  -43.4891  -58.1566 S.3       11 UNK        -0.2669 
     17 C17        28.7459  -42.6078  -59.3389 C.3       11 UNK        -0.0850 
     18 CA         27.3180  -43.2132  -59.4174 C.3       10 UNK         0.0855 
     19 C          26.4232  -42.3787  -60.3675 C.2       10 UNK         0.5543 
     20 N          25.7764  -41.3401  -59.8576 N.am      10 UNK        -0.7343 
     21 O          26.3367  -42.6420  -61.5662 O.2       10 UNK        -0.5027 
     22 N          27.3423  -44.6180  -59.8502 N.am      10 UNK        -0.4495 
     23 C          27.0990  -45.6743  -59.0691 C.2       10 UNK         0.4903 
     24 O          26.8166  -45.5964  -57.8703 O.2       10 UNK        -0.4860 
     25 CA         27.2158  -47.0497  -59.7489 C.3       9 UNK         0.0227 
     26 CB         28.6891  -47.4090  -60.0087 C.3       9 UNK        -0.1964 
     27 N          26.6154  -48.0807  -58.9023 N.am      9 UNK        -0.4231 
     28 C          25.3227  -48.4291  -58.9386 C.2       9 UNK         0.5014 
     29 O          24.5388  -48.0335  -59.8046 O.2       9 UNK        -0.5270 
     30 CA         24.7983  -49.3287  -57.8018 C.3       8 UNK         0.0284 
     31 CB         23.5615  -50.1599  -58.2078 C.3       8 UNK        -0.1977 
     32 N          25.8246  -50.1690  -57.1747 N.am      8 UNK        -0.4342 
     33 C          26.4886  -51.2062  -57.7084 C.2       8 UNK         0.5039 
     34 O          26.3210  -51.6022  -58.8628 O.2       8 UNK        -0.5547 
     35 CA         27.5160  -51.9369  -56.8147 C.3       7 UNK         0.0281 
     36 CB         28.9067  -51.9556  -57.4733 C.3       7 UNK        -0.1963 
     37 N          27.6384  -51.3660  -55.4698 N.am      7 UNK        -0.4444 
     38 C          26.7764  -51.5557  -54.4613 C.2       7 UNK         0.5104 
     39 O          25.8170  -52.3247  -54.5155 O.2       7 UNK        -0.5100 
     40 CA         26.9841  -50.6906  -53.2039 C.3       6 UNK         0.0396 
     41 CB         27.9159  -51.3892  -52.2044 C.3       6 UNK        -0.1801 
     42 N          27.5016  -49.3534  -53.5199 N.am      6 UNK        -0.4747 
     43 C          26.8005  -48.4092  -54.1667 C.2       6 UNK         0.5012 
     44 O          25.6305  -48.5603  -54.5184 O.2       6 UNK        -0.5003 
     45 CA         27.5329  -47.1056  -54.5429 C.3       5 UNK         0.0782 
     46 C46        27.3826  -46.0173  -53.4491 C.3       11 UNK        -0.0868 
     47 S47        28.6441  -46.0981  -52.1260 S.3       11 UNK        -0.2515 
     48 C48        29.2786  -44.3888  -52.1088 C.3       11 UNK         0.0199 
     49 N          28.9276  -47.3362  -54.9284 N.am      5 UNK        -0.4607 
     50 C          29.3149  -48.0242  -56.0074 C.2       4 UNK         0.5031 
     51 O          28.5335  -48.5154  -56.8208 O.2       4 UNK        -0.5119 
     52 CA         30.8252  -48.2470  -56.1710 C.3       4 UNK         0.0263 
     53 CB         31.5089  -46.9772  -56.7004 C.3       4 UNK        -0.1967 
     54 N          31.4732  -48.6727  -54.9259 N.am      4 UNK        -0.4237 
     55 C          31.2431  -49.8285  -54.2881 C.2       3 UNK         0.4908 
     56 O          30.4044  -50.6445  -54.6725 O.2       3 UNK        -0.5102 
     57 CA         32.0725  -50.1298  -53.0151 C.3       3 UNK         0.0241 
     58 CB         32.1089  -51.6351  -52.6863 C.3       3 UNK        -0.1971 
     59 N          33.4582  -49.6430  -53.0598 N.am      3 UNK        -0.4139 
     60 C          33.8450  -48.3668  -52.9521 C.2       2 UNK         0.5016 
     61 O          33.0457  -47.4343  -52.8536 O.2       2 UNK        -0.5319 
     62 CA         35.3624  -48.0996  -53.0406 C.3       2 UNK         0.0286 
     63 CB         35.8691  -48.3649  -54.4697 C.3       2 UNK        -0.1963 
     64 N          35.7331  -46.7285  -52.6733 N.am      2 UNK        -0.4790 
     65 C          35.6064  -46.1862  -51.4560 C.2       1 UNK         0.5024 
     66 O          35.2364  -46.8172  -50.4614 O.2       1 UNK        -0.4888 
     67 H67        38.5827  -43.5844  -47.8789 H         1 UNK         0.0892 
     68 H68        36.8606  -43.7739  -47.5451 H         1 UNK         0.0892 
     69 H69        37.9458  -45.1561  -47.3865 H         1 UNK         0.0892 
     70 H70        35.6195  -43.9175  -49.4009 H         1 UNK         0.3107 
     71 H71        36.7919  -44.4768  -51.9855 H         1 UNK         0.0773 
     72 H72        33.7788  -44.2705  -51.6250 H         1 UNK         0.0680 
     73 H73        34.7122  -42.8661  -51.2471 H         1 UNK         0.0680 
     74 H74        33.9025  -45.4418  -54.0407 H         1 UNK         0.0650 
     75 H75        34.1207  -44.5045  -55.4779 H         1 UNK         0.0650 
     76 H76        31.9065  -44.9704  -52.5057 H         1 UNK         0.1397 
     77 H77        28.5552  -43.1091  -54.4204 H         1 UNK         0.1363 
     78 H78        32.3898  -43.0763  -56.3259 H         1 UNK         0.1355 
     79 H79        30.3656  -41.4562  -56.9694 H         1 UNK         0.0707 
     80 H80        28.7760  -42.0482  -56.5286 H         1 UNK         0.0707 
     81 H81        28.7033  -41.5520  -59.0639 H         1 UNK         0.1034 
     82 H82        29.2256  -42.6408  -60.3190 H         1 UNK         0.1034 
     83 H83        26.8704  -43.1485  -58.4234 H         1 UNK         0.0482 
     84 H84        25.8446  -41.1104  -58.8782 H         1 UNK         0.3460 
     85 H85        25.1995  -40.7773  -60.4635 H         1 UNK         0.3460 
     86 H86        27.5093  -44.7563  -60.8372 H         1 UNK         0.2989 
     87 H87        26.6968  -47.0105  -60.7089 H         1 UNK         0.0559 
     88 H88        29.2795  -47.3809  -59.0939 H         1 UNK         0.0848 
     89 H89        29.1475  -46.7099  -60.7090 H         1 UNK         0.0848 
     90 H90        28.7849  -48.4065  -60.4378 H         1 UNK         0.0848 
     91 H91        27.1876  -48.3905  -58.1187 H         1 UNK         0.3144 
     92 H92        24.4745  -48.6395  -57.0209 H         1 UNK         0.0727 
     93 H93        23.2052  -50.7718  -57.3791 H         1 UNK         0.0790 
     94 H94        23.7751  -50.8215  -59.0476 H         1 UNK         0.0790 
     95 H95        22.7363  -49.5131  -58.5081 H         1 UNK         0.0790 
     96 H96        26.0563  -49.9102  -56.2237 H         1 UNK         0.3215 
     97 H97        27.1748  -52.9698  -56.7189 H         1 UNK         0.0863 
     98 H98        29.2921  -50.9484  -57.6311 H         1 UNK         0.0808 
     99 H99        28.8744  -52.4477  -58.4462 H         1 UNK         0.0808 
    100 H100       29.6286  -52.4967  -56.8611 H         1 UNK         0.0808 
    101 H101       28.4426  -50.7676  -55.3082 H         1 UNK         0.3118 
    102 H102       26.0112  -50.5670  -52.7232 H         1 UNK         0.0546 
    103 H103       28.0451  -50.7990  -51.2972 H         1 UNK         0.0828 
    104 H104       28.8991  -51.5691  -52.6345 H         1 UNK         0.0828 
    105 H105       27.5106  -52.3573  -51.9070 H         1 UNK         0.0828 
    106 H106       28.4638  -49.1604  -53.2826 H         1 UNK         0.3005 
    107 H107       27.0224  -46.7338  -55.4350 H         1 UNK         0.1257 
    108 H108       26.3929  -46.0497  -52.9888 H         1 UNK         0.0775 
    109 H109       27.4302  -45.0408  -53.9277 H         1 UNK         0.0775 
    110 H110       28.4420  -43.6922  -52.0333 H         1 UNK         0.0840 
    111 H111       29.8650  -44.2473  -51.1997 H         1 UNK         0.0840 
    112 H112       29.6256  -46.9592  -54.3027 H         1 UNK         0.2987 
    113 H113       30.9643  -49.0420  -56.9066 H         1 UNK         0.0785 
    114 H114       31.0712  -46.6589  -57.6471 H         1 UNK         0.0798 
    115 H115       32.5732  -47.1378  -56.8723 H         1 UNK         0.0798 
    116 H116       31.4022  -46.1470  -56.0036 H         1 UNK         0.0798 
    117 H117       32.1182  -48.0241  -54.4852 H         1 UNK         0.3079 
    118 H118       31.5650  -49.6225  -52.1919 H         1 UNK         0.0794 
    119 H119       31.1086  -52.0408  -52.5429 H         1 UNK         0.0786 
    120 H120       32.6614  -51.8278  -51.7664 H         1 UNK         0.0786 
    121 H121       32.5782  -52.2087  -53.4866 H         1 UNK         0.0786 
    122 H122       34.1683  -50.3498  -53.1879 H         1 UNK         0.3032 
    123 H123       35.8641  -48.7810  -52.3497 H         1 UNK         0.1094 
    124 H124       35.3817  -47.7142  -55.1974 H         1 UNK         0.0794 
    125 H125       36.9450  -48.2048  -54.5454 H         1 UNK         0.0794 
    126 H126       35.6801  -49.3942  -54.7771 H         1 UNK         0.0794 
    127 H127       36.0274  -46.1295  -53.4308 H         1 UNK         0.3016 
@<TRIPOS>BOND
     1    1    2 1    
     2    1   67 1    
     3    1   68 1    
     4    1   69 1    
     5    2    3 2    
     6    2    4 am   BACKBONE|DICT|INTERRES
     7    4    5 1    
     8    4   70 1    
     9    5    6 1    
    10    5   65 1    
    11    5   71 1    
    12    6    7 1    
    13    6   72 1    
    14    6   73 1    
    15    7    8 1    
    16    8    9 1    
    17    8   74 1    
    18    8   75 1    
    19    9   10 ar   
    20    9   14 ar   
    21   10   11 ar   
    22   10   76 1    
    23   11   12 ar   
    24   11   48 1    
    25   12   13 ar   
    26   12   77 1    
    27   13   14 ar   
    28   13   15 1    
    29   14   78 1    
    30   15   16 1    
    31   15   79 1    
    32   15   80 1    
    33   16   17 1    
    34   17   18 1    
    35   17   81 1    
    36   17   82 1    
    37   18   19 1    
    38   18   22 1    
    39   18   83 1    
    40   19   20 am   BACKBONE|DICT|INTERRES
    41   19   21 2    
    42   20   84 1    
    43   20   85 1    
    44   22   23 am   BACKBONE|DICT|INTERRES
    45   22   86 1    
    46   23   24 2    
    47   23   25 1    
    48   25   26 1    
    49   25   27 1    
    50   25   87 1    
    51   26   88 1    
    52   26   89 1    
    53   26   90 1    
    54   27   28 am   BACKBONE|DICT|INTERRES
    55   27   91 1    
    56   28   29 2    
    57   28   30 1    
    58   30   31 1    
    59   30   32 1    
    60   30   92 1    
    61   31   93 1    
    62   31   94 1    
    63   31   95 1    
    64   32   33 am   BACKBONE|DICT|INTERRES
    65   32   96 1    
    66   33   34 2    
    67   33   35 1    
    68   35   36 1    
    69   35   37 1    
    70   35   97 1    
    71   36   98 1    
    72   36   99 1    
    73   36  100 1    
    74   37   38 am   BACKBONE|DICT|INTERRES
    75   37  101 1    
    76   38   39 2    
    77   38   40 1    
    78   40   41 1    
    79   40   42 1    
    80   40  102 1    
    81   41  103 1    
    82   41  104 1    
    83   41  105 1    
    84   42   43 am   BACKBONE|DICT|INTERRES
    85   42  106 1    
    86   43   44 2    
    87   43   45 1    
    88   45   46 1    
    89   45   49 1    
    90   45  107 1    
    91   46   47 1    
    92   46  108 1    
    93   46  109 1    
    94   47   48 1    
    95   48  110 1    
    96   48  111 1    
    97   49   50 am   BACKBONE|DICT|INTERRES
    98   49  112 1    
    99   50   51 2    
   100   50   52 1    
   101   52   53 1    
   102   52   54 1    
   103   52  113 1    
   104   53  114 1    
   105   53  115 1    
   106   53  116 1    
   107   54   55 am   BACKBONE|DICT|INTERRES
   108   54  117 1    
   109   55   56 2    
   110   55   57 1    
   111   57   58 1    
   112   57   59 1    
   113   57  118 1    
   114   58  119 1    
   115   58  120 1    
   116   58  121 1    
   117   59   60 am   BACKBONE|DICT|INTERRES
   118   59  122 1    
   119   60   61 2    
   120   60   62 1    
   121   62   63 1    
   122   62   64 1    
   123   62  123 1    
   124   63  124 1    
   125   63  125 1    
   126   63  126 1    
   127   64   65 am   BACKBONE|DICT|INTERRES
   128   64  127 1    
   129   65   66 2    
@<TRIPOS>SUBSTRUCTURE
     1 UNK         1 GROUP             0       ****    0 ROOT    
