@<TRIPOS>MOLECULE
3R134
127   129    1
SMALL
USER_CHARGES


@<TRIPOS>ATOM
      1 CA         39.1599  -45.8889  -52.6441 C.3       0 UNK        -0.1968 
      2 C          37.9828  -46.4440  -53.4325 C.2       0 UNK         0.4852 
      3 O          38.0517  -47.5751  -53.9152 O.2       0 UNK        -0.5359 
      4 N          36.9105  -45.6526  -53.5704 N.am      1 UNK        -0.4300 
      5 CA         35.6570  -46.0200  -54.2393 C.3       1 UNK         0.0863 
      6 C6         34.7542  -44.7872  -54.5066 C.3       11 UNK        -0.0953 
      7 S7         34.5151  -43.7069  -53.0527 S.3       11 UNK        -0.2369 
      8 C8         33.5275  -42.3645  -53.7770 C.3       11 UNK         0.0226 
      9 C9         32.0832  -42.7846  -54.0031 C.ar      11 UNK        -0.0699 
     10 C10        31.2113  -42.8892  -52.9159 C.ar      11 UNK        -0.0804 
     11 C11        29.8705  -43.2372  -53.1043 C.ar      11 UNK        -0.0871 
     12 C12        29.4042  -43.4674  -54.4040 C.ar      11 UNK        -0.1008 
     13 C13        30.2719  -43.3893  -55.4979 C.ar      11 UNK        -0.0735 
     14 C14        31.6112  -43.0459  -55.2925 C.ar      11 UNK        -0.0945 
     15 C15        29.7564  -43.6725  -56.8992 C.3       11 UNK         0.0169 
     16 S16        28.8308  -42.2470  -57.5479 S.3       11 UNK        -0.2669 
     17 C17        28.2762  -42.8706  -59.1716 C.3       11 UNK        -0.0850 
     18 CA         26.8166  -43.3980  -59.1351 C.3       10 UNK         0.0855 
     19 C          26.2555  -43.6263  -60.5709 C.2       10 UNK         0.5543 
     20 N          25.7899  -44.8153  -60.9367 N.am      10 UNK        -0.7343 
     21 O          26.2339  -42.6952  -61.3721 O.2       10 UNK        -0.5027 
     22 N          26.7010  -44.5664  -58.2515 N.am      10 UNK        -0.4495 
     23 C          25.5928  -44.9541  -57.6109 C.2       10 UNK         0.4903 
     24 O          24.5357  -44.3217  -57.6209 O.2       10 UNK        -0.4860 
     25 CA         25.6986  -46.2838  -56.8357 C.3       9 UNK         0.0227 
     26 CB         24.3249  -46.9258  -56.5525 C.3       9 UNK        -0.1964 
     27 N          26.6022  -47.2591  -57.4645 N.am      9 UNK        -0.4231 
     28 C          26.5173  -47.7570  -58.7091 C.2       9 UNK         0.5014 
     29 O          25.6530  -47.4329  -59.5242 O.2       9 UNK        -0.5270 
     30 CA         27.5927  -48.7668  -59.1263 C.3       8 UNK         0.0284 
     31 CB         28.8749  -48.0393  -59.5687 C.3       8 UNK        -0.1977 
     32 N          27.8982  -49.6951  -58.0345 N.am      8 UNK        -0.4342 
     33 C          27.4887  -50.9694  -57.9921 C.2       8 UNK         0.5039 
     34 O          26.8273  -51.5098  -58.8801 O.2       8 UNK        -0.5547 
     35 CA         27.8929  -51.7966  -56.7621 C.3       7 UNK         0.0281 
     36 CB         29.3312  -52.3203  -56.9073 C.3       7 UNK        -0.1963 
     37 N          27.7585  -51.0808  -55.4920 N.am      7 UNK        -0.4444 
     38 C          26.5893  -50.7826  -54.9071 C.2       7 UNK         0.5104 
     39 O          25.4907  -50.9804  -55.4260 O.2       7 UNK        -0.5100 
     40 CA         26.6551  -50.1901  -53.4910 C.3       6 UNK         0.0396 
     41 CB         26.9859  -51.2840  -52.4620 C.3       6 UNK        -0.1801 
     42 N          27.6569  -49.1283  -53.4096 N.am      6 UNK        -0.4747 
     43 C          27.3822  -47.8187  -53.4927 C.2       6 UNK         0.5012 
     44 O          26.2381  -47.3698  -53.5592 O.2       6 UNK        -0.5003 
     45 CA         28.5803  -46.8410  -53.5405 C.3       5 UNK         0.0782 
     46 C46        28.8319  -46.1630  -52.1687 C.3       11 UNK        -0.0868 
     47 S47        27.7535  -44.7080  -51.9355 S.3       11 UNK        -0.2515 
     48 C48        28.9457  -43.3247  -51.8910 C.3       11 UNK         0.0199 
     49 N          29.8006  -47.4537  -54.0734 N.am      5 UNK        -0.4607 
     50 C          29.9316  -47.8933  -55.3333 C.2       4 UNK         0.5031 
     51 O          29.0461  -47.7918  -56.1823 O.2       4 UNK        -0.5119 
     52 CA         31.2306  -48.6302  -55.7020 C.3       4 UNK         0.0263 
     53 CB         32.2266  -47.6476  -56.3328 C.3       4 UNK        -0.1967 
     54 N          31.8572  -49.3250  -54.5708 N.am      4 UNK        -0.4237 
     55 C          31.2520  -50.2588  -53.8179 C.2       3 UNK         0.4908 
     56 O          30.1213  -50.6862  -54.0528 O.2       3 UNK        -0.5102 
     57 CA         31.9797  -50.7751  -52.5650 C.3       3 UNK         0.0241 
     58 CB         32.5640  -52.1717  -52.8289 C.3       3 UNK        -0.1971 
     59 N          33.0370  -49.8982  -52.0557 N.am      3 UNK        -0.4139 
     60 C          32.9004  -48.6217  -51.6661 C.2       2 UNK         0.5016 
     61 O          31.8374  -47.9982  -51.7054 O.2       2 UNK        -0.5319 
     62 CA         34.1826  -47.9077  -51.1918 C.3       2 UNK         0.0286 
     63 CB         35.3056  -48.8739  -50.7517 C.3       2 UNK        -0.1963 
     64 N          34.7201  -46.9599  -52.1766 N.am      2 UNK        -0.4790 
     65 C          34.9137  -47.1477  -53.4928 C.2       1 UNK         0.5024 
     66 O          34.5751  -48.1596  -54.1096 O.2       1 UNK        -0.4888 
     67 H67        38.9692  -44.8786  -52.2822 H         1 UNK         0.0892 
     68 H68        39.3667  -46.5237  -51.7829 H         1 UNK         0.0892 
     69 H69        40.0515  -45.8618  -53.2700 H         1 UNK         0.0892 
     70 H70        36.9154  -44.7324  -53.1527 H         1 UNK         0.3107 
     71 H71        35.9287  -46.4307  -55.2144 H         1 UNK         0.0773 
     72 H72        33.7787  -45.0903  -54.8883 H         1 UNK         0.0680 
     73 H73        35.2040  -44.1832  -55.2961 H         1 UNK         0.0680 
     74 H74        33.9893  -42.0291  -54.7070 H         1 UNK         0.0650 
     75 H75        33.5501  -41.5092  -53.1003 H         1 UNK         0.0650 
     76 H76        31.5827  -42.6910  -51.9195 H         1 UNK         0.1397 
     77 H77        28.3631  -43.7078  -54.5691 H         1 UNK         0.1363 
     78 H78        32.2829  -42.9704  -56.1366 H         1 UNK         0.1355 
     79 H79        30.5828  -43.9065  -57.5723 H         1 UNK         0.0707 
     80 H80        29.1173  -44.5556  -56.8739 H         1 UNK         0.0707 
     81 H81        28.3636  -42.0391  -59.8739 H         1 UNK         0.1034 
     82 H82        28.9607  -43.6392  -59.5353 H         1 UNK         0.1034 
     83 H83        26.1979  -42.6039  -58.7123 H         1 UNK         0.0482 
     84 H84        25.4288  -44.9307  -61.8700 H         1 UNK         0.3460 
     85 H85        25.7714  -45.6002  -60.2944 H         1 UNK         0.3460 
     86 H86        27.5086  -45.1672  -58.2051 H         1 UNK         0.2989 
     87 H87        26.1488  -46.0284  -55.8764 H         1 UNK         0.0559 
     88 H88        23.7922  -47.1646  -57.4736 H         1 UNK         0.0848 
     89 H89        23.6906  -46.2553  -55.9717 H         1 UNK         0.0848 
     90 H90        24.4317  -47.8456  -55.9767 H         1 UNK         0.0848 
     91 H91        27.4098  -47.5297  -56.9059 H         1 UNK         0.3144 
     92 H92        27.2102  -49.3115  -59.9921 H         1 UNK         0.0727 
     93 H93        29.3122  -47.4439  -58.7674 H         1 UNK         0.0790 
     94 H94        28.6700  -47.3635  -60.4003 H         1 UNK         0.0790 
     95 H95        29.6314  -48.7473  -59.9075 H         1 UNK         0.0790 
     96 H96        28.4068  -49.3115  -57.2450 H         1 UNK         0.3215 
     97 H97        27.2285  -52.6629  -56.7224 H         1 UNK         0.0863 
     98 H98        29.5988  -52.9779  -56.0799 H         1 UNK         0.0808 
     99 H99        30.0587  -51.5096  -56.9362 H         1 UNK         0.0808 
    100 H100       29.4462  -52.8945  -57.8277 H         1 UNK         0.0808 
    101 H101       28.6191  -50.9138  -54.9719 H         1 UNK         0.3118 
    102 H102       25.6660  -49.7967  -53.2466 H         1 UNK         0.0546 
    103 H103       26.2525  -52.0904  -52.5016 H         1 UNK         0.0828 
    104 H104       26.9748  -50.8867  -51.4471 H         1 UNK         0.0828 
    105 H105       27.9672  -51.7273  -52.6358 H         1 UNK         0.0828 
    106 H106       28.6266  -49.4236  -53.4045 H         1 UNK         0.3005 
    107 H107       28.3025  -46.0703  -54.2614 H         1 UNK         0.1257 
    108 H108       29.8706  -45.8374  -52.0895 H         1 UNK         0.0775 
    109 H109       28.6859  -46.8603  -51.3414 H         1 UNK         0.0775 
    110 H110       28.3907  -42.3894  -51.8099 H         1 UNK         0.0840 
    111 H111       29.5300  -43.4144  -50.9737 H         1 UNK         0.0840 
    112 H112       30.5607  -47.5952  -53.4166 H         1 UNK         0.2987 
    113 H113       30.9787  -49.3835  -56.4495 H         1 UNK         0.0785 
    114 H114       32.4984  -46.8565  -55.6352 H         1 UNK         0.0798 
    115 H115       31.7993  -47.1704  -57.2160 H         1 UNK         0.0798 
    116 H116       33.1413  -48.1512  -56.6460 H         1 UNK         0.0798 
    117 H117       32.7930  -49.0228  -54.3136 H         1 UNK         0.3079 
    118 H118       31.2278  -50.8618  -51.7781 H         1 UNK         0.0794 
    119 H119       33.3481  -52.1441  -53.5867 H         1 UNK         0.0786 
    120 H120       31.7929  -52.8580  -53.1827 H         1 UNK         0.0786 
    121 H121       32.9865  -52.6044  -51.9218 H         1 UNK         0.0786 
    122 H122       33.9647  -50.2949  -52.0204 H         1 UNK         0.3032 
    123 H123       33.8895  -47.3223  -50.3185 H         1 UNK         0.1094 
    124 H124       36.1228  -48.3279  -50.2797 H         1 UNK         0.0794 
    125 H125       34.9449  -49.5974  -50.0188 H         1 UNK         0.0794 
    126 H126       35.7296  -49.4261  -51.5915 H         1 UNK         0.0794 
    127 H127       34.9911  -46.0597  -51.8048 H         1 UNK         0.3016 
@<TRIPOS>BOND
     1    1    2 1    
     2    1   67 1    
     3    1   68 1    
     4    1   69 1    
     5    2    3 2    
     6    2    4 am   BACKBONE|DICT|INTERRES
     7    4    5 1    
     8    4   70 1    
     9    5    6 1    
    10    5   65 1    
    11    5   71 1    
    12    6    7 1    
    13    6   72 1    
    14    6   73 1    
    15    7    8 1    
    16    8    9 1    
    17    8   74 1    
    18    8   75 1    
    19    9   10 ar   
    20    9   14 ar   
    21   10   11 ar   
    22   10   76 1    
    23   11   12 ar   
    24   11   48 1    
    25   12   13 ar   
    26   12   77 1    
    27   13   14 ar   
    28   13   15 1    
    29   14   78 1    
    30   15   16 1    
    31   15   79 1    
    32   15   80 1    
    33   16   17 1    
    34   17   18 1    
    35   17   81 1    
    36   17   82 1    
    37   18   19 1    
    38   18   22 1    
    39   18   83 1    
    40   19   20 am   BACKBONE|DICT|INTERRES
    41   19   21 2    
    42   20   84 1    
    43   20   85 1    
    44   22   23 am   BACKBONE|DICT|INTERRES
    45   22   86 1    
    46   23   24 2    
    47   23   25 1    
    48   25   26 1    
    49   25   27 1    
    50   25   87 1    
    51   26   88 1    
    52   26   89 1    
    53   26   90 1    
    54   27   28 am   BACKBONE|DICT|INTERRES
    55   27   91 1    
    56   28   29 2    
    57   28   30 1    
    58   30   31 1    
    59   30   32 1    
    60   30   92 1    
    61   31   93 1    
    62   31   94 1    
    63   31   95 1    
    64   32   33 am   BACKBONE|DICT|INTERRES
    65   32   96 1    
    66   33   34 2    
    67   33   35 1    
    68   35   36 1    
    69   35   37 1    
    70   35   97 1    
    71   36   98 1    
    72   36   99 1    
    73   36  100 1    
    74   37   38 am   BACKBONE|DICT|INTERRES
    75   37  101 1    
    76   38   39 2    
    77   38   40 1    
    78   40   41 1    
    79   40   42 1    
    80   40  102 1    
    81   41  103 1    
    82   41  104 1    
    83   41  105 1    
    84   42   43 am   BACKBONE|DICT|INTERRES
    85   42  106 1    
    86   43   44 2    
    87   43   45 1    
    88   45   46 1    
    89   45   49 1    
    90   45  107 1    
    91   46   47 1    
    92   46  108 1    
    93   46  109 1    
    94   47   48 1    
    95   48  110 1    
    96   48  111 1    
    97   49   50 am   BACKBONE|DICT|INTERRES
    98   49  112 1    
    99   50   51 2    
   100   50   52 1    
   101   52   53 1    
   102   52   54 1    
   103   52  113 1    
   104   53  114 1    
   105   53  115 1    
   106   53  116 1    
   107   54   55 am   BACKBONE|DICT|INTERRES
   108   54  117 1    
   109   55   56 2    
   110   55   57 1    
   111   57   58 1    
   112   57   59 1    
   113   57  118 1    
   114   58  119 1    
   115   58  120 1    
   116   58  121 1    
   117   59   60 am   BACKBONE|DICT|INTERRES
   118   59  122 1    
   119   60   61 2    
   120   60   62 1    
   121   62   63 1    
   122   62   64 1    
   123   62  123 1    
   124   63  124 1    
   125   63  125 1    
   126   63  126 1    
   127   64   65 am   BACKBONE|DICT|INTERRES
   128   64  127 1    
   129   65   66 2    
@<TRIPOS>SUBSTRUCTURE
     1 UNK         1 GROUP             0       ****    0 ROOT    
