@<TRIPOS>MOLECULE
3R134
127   129    1
SMALL
USER_CHARGES


@<TRIPOS>ATOM
      1 CA         37.2791  -41.1176  -52.8890 C.3       0 UNK        -0.1968 
      2 C          37.2094  -42.6237  -52.6823 C.2       0 UNK         0.4852 
      3 O          37.7522  -43.1316  -51.6993 O.2       0 UNK        -0.5359 
      4 N          36.5552  -43.3399  -53.6051 N.am      1 UNK        -0.4300 
      5 CA         36.3139  -44.7837  -53.5369 C.3       1 UNK         0.0863 
      6 C6         35.9721  -45.3797  -54.9281 C.3       11 UNK        -0.0953 
      7 S7         34.6455  -44.5035  -55.8370 S.3       11 UNK        -0.2369 
      8 C8         33.4170  -45.8145  -56.1339 C.3       11 UNK         0.0226 
      9 C9         32.0983  -45.5074  -55.4432 C.ar      11 UNK        -0.0699 
     10 C10        31.9085  -45.8567  -54.1044 C.ar      11 UNK        -0.0804 
     11 C11        30.6858  -45.6139  -53.4735 C.ar      11 UNK        -0.0871 
     12 C12        29.6425  -45.0302  -54.1974 C.ar      11 UNK        -0.1008 
     13 C13        29.8215  -44.6672  -55.5364 C.ar      11 UNK        -0.0735 
     14 C14        31.0570  -44.8980  -56.1497 C.ar      11 UNK        -0.0945 
     15 C15        28.6679  -44.0686  -56.3301 C.3       11 UNK         0.0169 
     16 S16        28.0240  -42.5552  -55.5521 S.3       11 UNK        -0.2669 
     17 C17        26.6434  -42.1148  -56.6601 C.3       11 UNK        -0.0850 
     18 CA         25.2913  -42.7359  -56.1927 C.3       10 UNK         0.0855 
     19 C          24.0397  -41.9140  -56.6403 C.2       10 UNK         0.5543 
     20 N          22.8789  -42.5325  -56.8219 N.am      10 UNK        -0.7343 
     21 O          24.1042  -40.6959  -56.7887 O.2       10 UNK        -0.5027 
     22 N          25.2132  -44.1853  -56.4710 N.am      10 UNK        -0.4495 
     23 C          25.1207  -44.7455  -57.6861 C.2       10 UNK         0.4903 
     24 O          25.0917  -44.1032  -58.7369 O.2       10 UNK        -0.4860 
     25 CA         25.0172  -46.2811  -57.7166 C.3       9 UNK         0.0227 
     26 CB         23.9682  -46.7712  -58.7353 C.3       9 UNK        -0.1964 
     27 N          26.3083  -46.9417  -57.9381 N.am      9 UNK        -0.4231 
     28 C          27.1230  -46.8589  -59.0036 C.2       9 UNK         0.5014 
     29 O          26.9310  -46.1417  -59.9854 O.2       9 UNK        -0.5270 
     30 CA         28.3575  -47.7781  -58.9953 C.3       8 UNK         0.0284 
     31 CB         29.4851  -47.1846  -58.1395 C.3       8 UNK        -0.1977 
     32 N          28.0549  -49.1322  -58.5306 N.am      8 UNK        -0.4342 
     33 C          27.2635  -50.0062  -59.1695 C.2       8 UNK         0.5039 
     34 O          26.7408  -49.7931  -60.2641 O.2       8 UNK        -0.5547 
     35 CA         27.0000  -51.3415  -58.4581 C.3       7 UNK         0.0281 
     36 CB         28.1571  -52.3274  -58.6892 C.3       7 UNK        -0.1963 
     37 N          26.7908  -51.1463  -57.0227 N.am      7 UNK        -0.4444 
     38 C          25.6382  -50.7282  -56.4811 C.2       7 UNK         0.5104 
     39 O          24.6066  -50.5365  -57.1250 O.2       7 UNK        -0.5100 
     40 CA         25.6300  -50.4773  -54.9626 C.3       6 UNK         0.0396 
     41 CB         25.1624  -51.7352  -54.2137 C.3       6 UNK        -0.1801 
     42 N          26.9297  -50.0532  -54.4344 N.am      6 UNK        -0.4747 
     43 C          27.4952  -48.8612  -54.6747 C.2       6 UNK         0.5012 
     44 O          26.9843  -47.9889  -55.3776 O.2       6 UNK        -0.5003 
     45 CA         28.8854  -48.6231  -54.0568 C.3       5 UNK         0.0782 
     46 C46        28.7480  -48.1304  -52.5943 C.3       11 UNK        -0.0868 
     47 S47        30.3574  -47.7929  -51.7996 S.3       11 UNK        -0.2515 
     48 C48        30.4932  -45.9909  -52.0133 C.3       11 UNK         0.0199 
     49 N          29.7764  -49.7835  -54.1674 N.am      5 UNK        -0.4607 
     50 C          30.1524  -50.3773  -55.3081 C.2       4 UNK         0.5031 
     51 O          29.6539  -50.1161  -56.4038 O.2       4 UNK        -0.5119 
     52 CA         31.2570  -51.4495  -55.2027 C.3       4 UNK         0.0263 
     53 CB         32.0306  -51.6268  -56.5269 C.3       4 UNK        -0.1967 
     54 N          32.1850  -51.2342  -54.0803 N.am      4 UNK        -0.4237 
     55 C          32.9867  -50.1756  -53.8860 C.2       3 UNK         0.4908 
     56 O          33.0826  -49.2159  -54.6551 O.2       3 UNK        -0.5102 
     57 CA         33.8322  -50.1974  -52.6094 C.3       3 UNK         0.0241 
     58 CB         35.1443  -50.9722  -52.8247 C.3       3 UNK        -0.1971 
     59 N          34.1270  -48.8183  -52.2375 N.am      3 UNK        -0.4139 
     60 C          34.2676  -48.3605  -50.9892 C.2       2 UNK         0.5016 
     61 O          34.2366  -49.0825  -49.9910 O.2       2 UNK        -0.5319 
     62 CA         34.4952  -46.8475  -50.8382 C.3       2 UNK         0.0286 
     63 CB         35.0724  -46.4547  -49.4635 C.3       2 UNK        -0.1963 
     64 N          35.3642  -46.3408  -51.9036 N.am      2 UNK        -0.4790 
     65 C          35.2557  -45.1319  -52.4680 C.2       1 UNK         0.5024 
     66 O          34.3707  -44.3220  -52.1808 O.2       1 UNK        -0.4888 
     67 H67        36.8160  -40.6022  -52.0481 H         1 UNK         0.0892 
     68 H68        38.3179  -40.7955  -52.9570 H         1 UNK         0.0892 
     69 H69        36.7677  -40.8070  -53.8000 H         1 UNK         0.0892 
     70 H70        36.0969  -42.8700  -54.3731 H         1 UNK         0.3107 
     71 H71        37.2496  -45.2461  -53.2140 H         1 UNK         0.0773 
     72 H72        36.8631  -45.3331  -55.5561 H         1 UNK         0.0680 
     73 H73        35.7457  -46.4433  -54.8424 H         1 UNK         0.0680 
     74 H74        33.7843  -46.7870  -55.8058 H         1 UNK         0.0650 
     75 H75        33.2623  -45.9062  -57.2099 H         1 UNK         0.0650 
     76 H76        32.7104  -46.3269  -53.5546 H         1 UNK         0.1397 
     77 H77        28.6871  -44.8559  -53.7215 H         1 UNK         0.1363 
     78 H78        31.2036  -44.6259  -57.1857 H         1 UNK         0.1355 
     79 H79        28.9724  -43.8421  -57.3530 H         1 UNK         0.0707 
     80 H80        27.8764  -44.8143  -56.3967 H         1 UNK         0.0707 
     81 H81        26.8772  -42.3899  -57.6895 H         1 UNK         0.1034 
     82 H82        26.5986  -41.0246  -56.6547 H         1 UNK         0.1034 
     83 H83        25.2601  -42.6543  -55.1055 H         1 UNK         0.0482 
     84 H84        22.8047  -43.5282  -56.6907 H         1 UNK         0.3460 
     85 H85        22.0714  -41.9965  -57.0985 H         1 UNK         0.3460 
     86 H86        25.2124  -44.7843  -55.6578 H         1 UNK         0.2989 
     87 H87        24.6816  -46.6109  -56.7320 H         1 UNK         0.0559 
     88 H88        24.2346  -46.5031  -59.7582 H         1 UNK         0.0848 
     89 H89        22.9911  -46.3328  -58.5298 H         1 UNK         0.0848 
     90 H90        23.8548  -47.8549  -58.6934 H         1 UNK         0.0848 
     91 H91        26.6207  -47.5128  -57.1553 H         1 UNK         0.3144 
     92 H92        28.7200  -47.8562  -60.0225 H         1 UNK         0.0727 
     93 H93        30.3882  -47.7931  -58.1923 H         1 UNK         0.0790 
     94 H94        29.1978  -47.1092  -57.0905 H         1 UNK         0.0790 
     95 H95        29.7463  -46.1844  -58.4858 H         1 UNK         0.0790 
     96 H96        28.5123  -49.4330  -57.6714 H         1 UNK         0.3215 
     97 H97        26.0961  -51.7783  -58.8894 H         1 UNK         0.0863 
     98 H98        29.1008  -51.9482  -58.2977 H         1 UNK         0.0808 
     99 H99        28.3000  -52.5135  -59.7545 H         1 UNK         0.0808 
    100 H100       27.9593  -53.2894  -58.2164 H         1 UNK         0.0808 
    101 H101       27.6030  -51.2258  -56.4268 H         1 UNK         0.3118 
    102 H102       24.9104  -49.6793  -54.7664 H         1 UNK         0.0546 
    103 H103       25.0710  -51.5498  -53.1434 H         1 UNK         0.0828 
    104 H104       25.8503  -52.5699  -54.3538 H         1 UNK         0.0828 
    105 H105       24.1827  -52.0582  -54.5687 H         1 UNK         0.0828 
    106 H106       27.4286  -50.7131  -53.8544 H         1 UNK         0.3005 
    107 H107       29.3494  -47.8277  -54.6431 H         1 UNK         0.1257 
    108 H108       28.2339  -48.8780  -51.9872 H         1 UNK         0.0775 
    109 H109       28.1303  -47.2314  -52.5477 H         1 UNK         0.0775 
    110 H110       29.6095  -45.5055  -51.5961 H         1 UNK         0.0840 
    111 H111       31.3391  -45.6220  -51.4329 H         1 UNK         0.0840 
    112 H112       30.2423  -50.0540  -53.3141 H         1 UNK         0.2987 
    113 H113       30.7411  -52.3884  -54.9967 H         1 UNK         0.0785 
    114 H114       32.8074  -52.3858  -56.4351 H         1 UNK         0.0798 
    115 H115       31.3662  -51.9426  -57.3316 H         1 UNK         0.0798 
    116 H116       32.5045  -50.6977  -56.8456 H         1 UNK         0.0798 
    117 H117       32.1938  -51.9675  -53.3839 H         1 UNK         0.3079 
    118 H118       33.2498  -50.6729  -51.8169 H         1 UNK         0.0794 
    119 H119       34.9483  -52.0071  -53.1076 H         1 UNK         0.0786 
    120 H120       35.7449  -50.9938  -51.9151 H         1 UNK         0.0786 
    121 H121       35.7497  -50.5257  -53.6147 H         1 UNK         0.0786 
    122 H122       34.1052  -48.1702  -53.0144 H         1 UNK         0.3032 
    123 H123       33.5070  -46.3931  -50.9290 H         1 UNK         0.1094 
    124 H124       36.0515  -46.9047  -49.2965 H         1 UNK         0.0794 
    125 H125       35.1804  -45.3737  -49.3725 H         1 UNK         0.0794 
    126 H126       34.4182  -46.7806  -48.6538 H         1 UNK         0.0794 
    127 H127       36.1117  -46.9581  -52.1936 H         1 UNK         0.3016 
@<TRIPOS>BOND
     1    1    2 1    
     2    1   67 1    
     3    1   68 1    
     4    1   69 1    
     5    2    3 2    
     6    2    4 am   BACKBONE|DICT|INTERRES
     7    4    5 1    
     8    4   70 1    
     9    5    6 1    
    10    5   65 1    
    11    5   71 1    
    12    6    7 1    
    13    6   72 1    
    14    6   73 1    
    15    7    8 1    
    16    8    9 1    
    17    8   74 1    
    18    8   75 1    
    19    9   10 ar   
    20    9   14 ar   
    21   10   11 ar   
    22   10   76 1    
    23   11   12 ar   
    24   11   48 1    
    25   12   13 ar   
    26   12   77 1    
    27   13   14 ar   
    28   13   15 1    
    29   14   78 1    
    30   15   16 1    
    31   15   79 1    
    32   15   80 1    
    33   16   17 1    
    34   17   18 1    
    35   17   81 1    
    36   17   82 1    
    37   18   19 1    
    38   18   22 1    
    39   18   83 1    
    40   19   20 am   BACKBONE|DICT|INTERRES
    41   19   21 2    
    42   20   84 1    
    43   20   85 1    
    44   22   23 am   BACKBONE|DICT|INTERRES
    45   22   86 1    
    46   23   24 2    
    47   23   25 1    
    48   25   26 1    
    49   25   27 1    
    50   25   87 1    
    51   26   88 1    
    52   26   89 1    
    53   26   90 1    
    54   27   28 am   BACKBONE|DICT|INTERRES
    55   27   91 1    
    56   28   29 2    
    57   28   30 1    
    58   30   31 1    
    59   30   32 1    
    60   30   92 1    
    61   31   93 1    
    62   31   94 1    
    63   31   95 1    
    64   32   33 am   BACKBONE|DICT|INTERRES
    65   32   96 1    
    66   33   34 2    
    67   33   35 1    
    68   35   36 1    
    69   35   37 1    
    70   35   97 1    
    71   36   98 1    
    72   36   99 1    
    73   36  100 1    
    74   37   38 am   BACKBONE|DICT|INTERRES
    75   37  101 1    
    76   38   39 2    
    77   38   40 1    
    78   40   41 1    
    79   40   42 1    
    80   40  102 1    
    81   41  103 1    
    82   41  104 1    
    83   41  105 1    
    84   42   43 am   BACKBONE|DICT|INTERRES
    85   42  106 1    
    86   43   44 2    
    87   43   45 1    
    88   45   46 1    
    89   45   49 1    
    90   45  107 1    
    91   46   47 1    
    92   46  108 1    
    93   46  109 1    
    94   47   48 1    
    95   48  110 1    
    96   48  111 1    
    97   49   50 am   BACKBONE|DICT|INTERRES
    98   49  112 1    
    99   50   51 2    
   100   50   52 1    
   101   52   53 1    
   102   52   54 1    
   103   52  113 1    
   104   53  114 1    
   105   53  115 1    
   106   53  116 1    
   107   54   55 am   BACKBONE|DICT|INTERRES
   108   54  117 1    
   109   55   56 2    
   110   55   57 1    
   111   57   58 1    
   112   57   59 1    
   113   57  118 1    
   114   58  119 1    
   115   58  120 1    
   116   58  121 1    
   117   59   60 am   BACKBONE|DICT|INTERRES
   118   59  122 1    
   119   60   61 2    
   120   60   62 1    
   121   62   63 1    
   122   62   64 1    
   123   62  123 1    
   124   63  124 1    
   125   63  125 1    
   126   63  126 1    
   127   64   65 am   BACKBONE|DICT|INTERRES
   128   64  127 1    
   129   65   66 2    
@<TRIPOS>SUBSTRUCTURE
     1 UNK         1 GROUP             0       ****    0 ROOT    
