@<TRIPOS>MOLECULE
3R134
127   129    1
SMALL
USER_CHARGES


@<TRIPOS>ATOM
      1 CA         36.8585  -44.2066  -55.3051 C.3       0 UNK        -0.1968 
      2 C          35.7829  -45.0603  -54.6517 C.2       0 UNK         0.4852 
      3 O          35.2202  -45.9411  -55.3026 O.2       0 UNK        -0.5359 
      4 N          35.4971  -44.8218  -53.3646 N.am      1 UNK        -0.4300 
      5 CA         34.4766  -45.5133  -52.5650 C.3       1 UNK         0.0863 
      6 C6         33.9894  -44.6162  -51.3942 C.3       11 UNK        -0.0953 
      7 S7         32.2543  -44.9440  -50.9225 S.3       11 UNK        -0.2369 
      8 C8         31.4322  -43.3735  -51.3537 C.3       11 UNK         0.0226 
      9 C9         30.8722  -43.3721  -52.7713 C.ar      11 UNK        -0.0699 
     10 C10        31.7197  -43.4872  -53.8767 C.ar      11 UNK        -0.0804 
     11 C11        31.2028  -43.4955  -55.1742 C.ar      11 UNK        -0.0871 
     12 C12        29.8263  -43.3422  -55.3635 C.ar      11 UNK        -0.1008 
     13 C13        28.9623  -43.1879  -54.2692 C.ar      11 UNK        -0.0735 
     14 C14        29.4975  -43.2237  -52.9781 C.ar      11 UNK        -0.0945 
     15 C15        27.4501  -43.0040  -54.4191 C.3       11 UNK         0.0169 
     16 S16        26.8847  -42.5618  -56.0969 S.3       11 UNK        -0.2669 
     17 C17        25.2113  -43.2938  -56.1190 C.3       11 UNK        -0.0850 
     18 CA         25.1976  -44.8460  -56.2824 C.3       10 UNK         0.0855 
     19 C          23.7524  -45.4276  -56.3382 C.2       10 UNK         0.5543 
     20 N          23.5178  -46.5717  -56.9683 N.am      10 UNK        -0.7343 
     21 O          22.8232  -44.8430  -55.7856 O.2       10 UNK        -0.5027 
     22 N          26.1068  -45.3311  -57.3344 N.am      10 UNK        -0.4495 
     23 C          26.0186  -45.0444  -58.6402 C.2       10 UNK         0.4903 
     24 O          25.1052  -44.3958  -59.1513 O.2       10 UNK        -0.4860 
     25 CA         27.1538  -45.5682  -59.5274 C.3       9 UNK         0.0227 
     26 CB         28.4039  -44.6827  -59.3870 C.3       9 UNK        -0.1964 
     27 N          27.4813  -46.9489  -59.1713 N.am      9 UNK        -0.4231 
     28 C          27.0497  -48.0201  -59.8483 C.2       9 UNK         0.5014 
     29 O          26.4021  -47.9615  -60.8950 O.2       9 UNK        -0.5270 
     30 CA         27.3952  -49.3985  -59.2648 C.3       8 UNK         0.0284 
     31 CB         28.8307  -49.8008  -59.6419 C.3       8 UNK        -0.1977 
     32 N          27.2237  -49.4982  -57.8132 N.am      8 UNK        -0.4342 
     33 C          26.0583  -49.3845  -57.1597 C.2       8 UNK         0.5039 
     34 O          25.0008  -49.0576  -57.6974 O.2       8 UNK        -0.5547 
     35 CA         26.0707  -49.6928  -55.6551 C.3       7 UNK         0.0281 
     36 CB         26.2926  -51.1940  -55.4025 C.3       7 UNK        -0.1963 
     37 N          27.1151  -48.9239  -54.9828 N.am      7 UNK        -0.4444 
     38 C          26.8995  -47.8305  -54.2397 C.2       7 UNK         0.5104 
     39 O          25.7800  -47.4267  -53.9258 O.2       7 UNK        -0.5100 
     40 CA         28.1318  -47.0275  -53.7762 C.3       6 UNK         0.0396 
     41 CB         28.3812  -47.2155  -52.2720 C.3       6 UNK        -0.1801 
     42 N          29.3617  -47.3299  -54.5105 N.am      6 UNK        -0.4747 
     43 C          29.5586  -47.0827  -55.8138 C.2       6 UNK         0.5012 
     44 O          28.7003  -46.5981  -56.5552 O.2       6 UNK        -0.5003 
     45 CA         30.9032  -47.5571  -56.4061 C.3       5 UNK         0.0782 
     46 C46        32.0104  -46.4822  -56.2803 C.3       11 UNK        -0.0868 
     47 S47        31.7520  -45.0798  -57.4199 S.3       11 UNK        -0.2515 
     48 C48        32.1401  -43.6411  -56.3681 C.3       11 UNK         0.0199 
     49 N          31.3427  -48.8488  -55.8565 N.am      5 UNK        -0.4607 
     50 C          30.6449  -49.9921  -55.9284 C.2       4 UNK         0.5031 
     51 O          29.5248  -50.0761  -56.4291 O.2       4 UNK        -0.5119 
     52 CA         31.2802  -51.2505  -55.3221 C.3       4 UNK         0.0263 
     53 CB         32.2031  -51.9300  -56.3453 C.3       4 UNK        -0.1967 
     54 N          32.0199  -51.0064  -54.0833 N.am      4 UNK        -0.4237 
     55 C          31.4993  -50.5619  -52.9331 C.2       3 UNK         0.4908 
     56 O          30.3231  -50.2244  -52.8020 O.2       3 UNK        -0.5102 
     57 CA         32.4429  -50.4818  -51.7183 C.3       3 UNK         0.0241 
     58 CB         32.6731  -51.8770  -51.1056 C.3       3 UNK        -0.1971 
     59 N          33.7157  -49.7897  -51.9676 N.am      3 UNK        -0.4139 
     60 C          34.7205  -50.1097  -52.7963 C.2       2 UNK         0.5016 
     61 O          34.7265  -51.1159  -53.5087 O.2       2 UNK        -0.5319 
     62 CA         35.8903  -49.1070  -52.8695 C.3       2 UNK         0.0286 
     63 CB         36.8925  -49.4469  -53.9885 C.3       2 UNK        -0.1963 
     64 N          35.4220  -47.7310  -53.0643 N.am      2 UNK        -0.4790 
     65 C          34.9371  -46.9208  -52.1153 C.2       1 UNK         0.5024 
     66 O          34.8365  -47.2698  -50.9378 O.2       1 UNK        -0.4888 
     67 H67        36.4460  -43.6804  -56.1655 H         1 UNK         0.0892 
     68 H68        37.6775  -44.8365  -55.6510 H         1 UNK         0.0892 
     69 H69        37.2660  -43.4657  -54.6175 H         1 UNK         0.0892 
     70 H70        36.0291  -44.1191  -52.8704 H         1 UNK         0.3107 
     71 H71        33.6243  -45.6873  -53.2249 H         1 UNK         0.0773 
     72 H72        34.6246  -44.7214  -50.5126 H         1 UNK         0.0680 
     73 H73        34.0734  -43.5650  -51.6717 H         1 UNK         0.0680 
     74 H74        32.1129  -42.5316  -51.2245 H         1 UNK         0.0650 
     75 H75        30.6284  -43.2154  -50.6333 H         1 UNK         0.0650 
     76 H76        32.7851  -43.5716  -53.7277 H         1 UNK         0.1397 
     77 H77        29.4417  -43.3486  -56.3727 H         1 UNK         0.1363 
     78 H78        28.8371  -43.1228  -52.1274 H         1 UNK         0.1355 
     79 H79        27.1119  -42.2218  -53.7379 H         1 UNK         0.0707 
     80 H80        26.9604  -43.9199  -54.0938 H         1 UNK         0.0707 
     81 H81        24.6569  -42.8278  -56.9353 H         1 UNK         0.1034 
     82 H82        24.6934  -43.0013  -55.2037 H         1 UNK         0.1034 
     83 H83        25.6074  -45.2561  -55.3624 H         1 UNK         0.0482 
     84 H84        22.5775  -46.9317  -56.9879 H         1 UNK         0.3460 
     85 H85        24.2653  -47.1167  -57.3795 H         1 UNK         0.3460 
     86 H86        26.9222  -45.8379  -57.0071 H         1 UNK         0.2989 
     87 H87        26.8239  -45.5104  -60.5668 H         1 UNK         0.0559 
     88 H88        29.2153  -45.0367  -60.0228 H         1 UNK         0.0848 
     89 H89        28.7727  -44.6544  -58.3617 H         1 UNK         0.0848 
     90 H90        28.1860  -43.6547  -59.6788 H         1 UNK         0.0848 
     91 H91        27.9845  -47.0823  -58.2993 H         1 UNK         0.3144 
     92 H92        26.7146  -50.1224  -59.7180 H         1 UNK         0.0727 
     93 H93        29.0576  -50.8152  -59.3129 H         1 UNK         0.0790 
     94 H94        29.5686  -49.1331  -59.1964 H         1 UNK         0.0790 
     95 H95        28.9738  -49.7714  -60.7229 H         1 UNK         0.0790 
     96 H96        28.0555  -49.7646  -57.2851 H         1 UNK         0.3215 
     97 H97        25.0880  -49.4304  -55.2566 H         1 UNK         0.0863 
     98 H98        26.2323  -51.4262  -54.3392 H         1 UNK         0.0808 
     99 H99        27.2651  -51.5328  -55.7614 H         1 UNK         0.0808 
    100 H100       25.5318  -51.7905  -55.9078 H         1 UNK         0.0808 
    101 H101       28.0725  -49.1735  -55.2008 H         1 UNK         0.3118 
    102 H102       27.9073  -45.9755  -53.9490 H         1 UNK         0.0546 
    103 H103       28.6228  -48.2507  -52.0294 H         1 UNK         0.0828 
    104 H104       27.4976  -46.9433  -51.6933 H         1 UNK         0.0828 
    105 H105       29.2007  -46.5859  -51.9239 H         1 UNK         0.0828 
    106 H106       30.0920  -47.7986  -53.9930 H         1 UNK         0.3005 
    107 H107       30.7267  -47.7294  -57.4701 H         1 UNK         0.1257 
    108 H108       32.1035  -46.1334  -55.2507 H         1 UNK         0.0775 
    109 H109       32.9791  -46.9144  -56.5358 H         1 UNK         0.0775 
    110 H110       33.1788  -43.7194  -56.0430 H         1 UNK         0.0840 
    111 H111       32.0776  -42.7371  -56.9753 H         1 UNK         0.0840 
    112 H112       32.2535  -48.8719  -55.4227 H         1 UNK         0.2987 
    113 H113       30.4674  -51.9407  -55.0859 H         1 UNK         0.0785 
    114 H114       33.0635  -51.3061  -56.5912 H         1 UNK         0.0798 
    115 H115       31.6715  -52.1366  -57.2754 H         1 UNK         0.0798 
    116 H116       32.5775  -52.8823  -55.9693 H         1 UNK         0.0798 
    117 H117       33.0140  -51.2322  -54.0775 H         1 UNK         0.3079 
    118 H118       31.9276  -49.8797  -50.9680 H         1 UNK         0.0794 
    119 H119       33.1937  -52.5460  -51.7915 H         1 UNK         0.0786 
    120 H120       31.7244  -52.3507  -50.8495 H         1 UNK         0.0786 
    121 H121       33.2607  -51.8142  -50.1898 H         1 UNK         0.0786 
    122 H122       33.8417  -48.9281  -51.4448 H         1 UNK         0.3032 
    123 H123       36.4208  -49.1693  -51.9164 H         1 UNK         0.1094 
    124 H124       37.7307  -48.7499  -53.9952 H         1 UNK         0.0794 
    125 H125       37.3071  -50.4469  -53.8542 H         1 UNK         0.0794 
    126 H126       36.4232  -49.4163  -54.9728 H         1 UNK         0.0794 
    127 H127       35.4392  -47.3662  -54.0138 H         1 UNK         0.3016 
@<TRIPOS>BOND
     1    1    2 1    
     2    1   67 1    
     3    1   68 1    
     4    1   69 1    
     5    2    3 2    
     6    2    4 am   BACKBONE|DICT|INTERRES
     7    4    5 1    
     8    4   70 1    
     9    5    6 1    
    10    5   65 1    
    11    5   71 1    
    12    6    7 1    
    13    6   72 1    
    14    6   73 1    
    15    7    8 1    
    16    8    9 1    
    17    8   74 1    
    18    8   75 1    
    19    9   10 ar   
    20    9   14 ar   
    21   10   11 ar   
    22   10   76 1    
    23   11   12 ar   
    24   11   48 1    
    25   12   13 ar   
    26   12   77 1    
    27   13   14 ar   
    28   13   15 1    
    29   14   78 1    
    30   15   16 1    
    31   15   79 1    
    32   15   80 1    
    33   16   17 1    
    34   17   18 1    
    35   17   81 1    
    36   17   82 1    
    37   18   19 1    
    38   18   22 1    
    39   18   83 1    
    40   19   20 am   BACKBONE|DICT|INTERRES
    41   19   21 2    
    42   20   84 1    
    43   20   85 1    
    44   22   23 am   BACKBONE|DICT|INTERRES
    45   22   86 1    
    46   23   24 2    
    47   23   25 1    
    48   25   26 1    
    49   25   27 1    
    50   25   87 1    
    51   26   88 1    
    52   26   89 1    
    53   26   90 1    
    54   27   28 am   BACKBONE|DICT|INTERRES
    55   27   91 1    
    56   28   29 2    
    57   28   30 1    
    58   30   31 1    
    59   30   32 1    
    60   30   92 1    
    61   31   93 1    
    62   31   94 1    
    63   31   95 1    
    64   32   33 am   BACKBONE|DICT|INTERRES
    65   32   96 1    
    66   33   34 2    
    67   33   35 1    
    68   35   36 1    
    69   35   37 1    
    70   35   97 1    
    71   36   98 1    
    72   36   99 1    
    73   36  100 1    
    74   37   38 am   BACKBONE|DICT|INTERRES
    75   37  101 1    
    76   38   39 2    
    77   38   40 1    
    78   40   41 1    
    79   40   42 1    
    80   40  102 1    
    81   41  103 1    
    82   41  104 1    
    83   41  105 1    
    84   42   43 am   BACKBONE|DICT|INTERRES
    85   42  106 1    
    86   43   44 2    
    87   43   45 1    
    88   45   46 1    
    89   45   49 1    
    90   45  107 1    
    91   46   47 1    
    92   46  108 1    
    93   46  109 1    
    94   47   48 1    
    95   48  110 1    
    96   48  111 1    
    97   49   50 am   BACKBONE|DICT|INTERRES
    98   49  112 1    
    99   50   51 2    
   100   50   52 1    
   101   52   53 1    
   102   52   54 1    
   103   52  113 1    
   104   53  114 1    
   105   53  115 1    
   106   53  116 1    
   107   54   55 am   BACKBONE|DICT|INTERRES
   108   54  117 1    
   109   55   56 2    
   110   55   57 1    
   111   57   58 1    
   112   57   59 1    
   113   57  118 1    
   114   58  119 1    
   115   58  120 1    
   116   58  121 1    
   117   59   60 am   BACKBONE|DICT|INTERRES
   118   59  122 1    
   119   60   61 2    
   120   60   62 1    
   121   62   63 1    
   122   62   64 1    
   123   62  123 1    
   124   63  124 1    
   125   63  125 1    
   126   63  126 1    
   127   64   65 am   BACKBONE|DICT|INTERRES
   128   64  127 1    
   129   65   66 2    
@<TRIPOS>SUBSTRUCTURE
     1 UNK         1 GROUP             0       ****    0 ROOT    
