@<TRIPOS>MOLECULE
3R134
127   129    1
SMALL
USER_CHARGES


@<TRIPOS>ATOM
      1 CA         32.3441  -45.1066  -49.9951 C.3       0 UNK        -0.1968 
      2 C          33.8476  -45.2614  -50.1576 C.2       0 UNK         0.4852 
      3 O          34.4976  -45.8799  -49.3136 O.2       0 UNK        -0.5359 
      4 N          34.4016  -44.7129  -51.2473 N.am      1 UNK        -0.4300 
      5 CA         35.8102  -44.8634  -51.6338 C.3       1 UNK         0.0863 
      6 C6         36.2688  -43.7337  -52.5920 C.3       11 UNK        -0.0953 
      7 S7         35.3089  -43.6308  -54.1467 S.3       11 UNK        -0.2369 
      8 C8         34.2630  -42.1636  -53.8812 C.3       11 UNK         0.0226 
      9 C9         32.7973  -42.4877  -54.1262 C.ar      11 UNK        -0.0699 
     10 C10        31.9247  -42.6853  -53.0511 C.ar      11 UNK        -0.0804 
     11 C11        30.5761  -42.9831  -53.2731 C.ar      11 UNK        -0.0871 
     12 C12        30.0990  -43.0502  -54.5863 C.ar      11 UNK        -0.1008 
     13 C13        30.9639  -42.8702  -55.6683 C.ar      11 UNK        -0.0735 
     14 C14        32.3119  -42.5866  -55.4336 C.ar      11 UNK        -0.0945 
     15 C15        30.4355  -43.0017  -57.0860 C.3       11 UNK         0.0169 
     16 S16        30.1705  -44.7499  -57.5033 S.3       11 UNK        -0.2669 
     17 C17        29.4029  -44.6009  -59.1494 C.3       11 UNK        -0.0850 
     18 CA         27.8702  -44.3581  -59.0996 C.3       10 UNK         0.0855 
     19 C          27.3001  -44.2218  -60.5438 C.2       10 UNK         0.5543 
     20 N          26.4533  -45.1259  -61.0242 N.am      10 UNK        -0.7343 
     21 O          27.6374  -43.2700  -61.2433 O.2       10 UNK        -0.5027 
     22 N          27.1832  -45.3475  -58.2553 N.am      10 UNK        -0.4495 
     23 C          25.9177  -45.2524  -57.8252 C.2       10 UNK         0.4903 
     24 O          25.2172  -44.2503  -57.9767 O.2       10 UNK        -0.4860 
     25 CA         25.3365  -46.5009  -57.1293 C.3       9 UNK         0.0227 
     26 CB         23.7975  -46.5743  -57.2153 C.3       9 UNK        -0.1964 
     27 N          25.9483  -47.7513  -57.6004 N.am      9 UNK        -0.4231 
     28 C          25.9659  -48.2222  -58.8580 C.2       9 UNK         0.5014 
     29 O          25.3811  -47.6839  -59.7992 O.2       9 UNK        -0.5270 
     30 CA         26.8281  -49.4620  -59.1380 C.3       8 UNK         0.0284 
     31 CB         28.1180  -49.0500  -59.8708 C.3       8 UNK        -0.1977 
     32 N          27.1900  -50.1843  -57.9140 N.am      8 UNK        -0.4342 
     33 C          26.7214  -51.3940  -57.5832 C.2       8 UNK         0.5039 
     34 O          25.9045  -52.0234  -58.2573 O.2       8 UNK        -0.5547 
     35 CA         27.2666  -52.0296  -56.2952 C.3       7 UNK         0.0281 
     36 CB         28.6172  -52.7154  -56.5608 C.3       7 UNK        -0.1963 
     37 N          27.4074  -51.0943  -55.1777 N.am      7 UNK        -0.4444 
     38 C          26.3821  -50.5935  -54.4741 C.2       7 UNK         0.5104 
     39 O          25.1992  -50.7603  -54.7709 O.2       7 UNK        -0.5100 
     40 CA         26.7344  -49.7975  -53.2084 C.3       6 UNK         0.0396 
     41 CB         27.1506  -50.7483  -52.0738 C.3       6 UNK        -0.1801 
     42 N          27.8149  -48.8456  -53.4610 N.am      6 UNK        -0.4747 
     43 C          27.6330  -47.5444  -53.7288 C.2       6 UNK         0.5012 
     44 O          26.5283  -47.0015  -53.7344 O.2       6 UNK        -0.5003 
     45 CA         28.8907  -46.7133  -54.0820 C.3       5 UNK         0.0782 
     46 C46        29.4781  -46.0102  -52.8284 C.3       11 UNK        -0.0868 
     47 S47        28.4552  -44.5851  -52.3039 S.3       11 UNK        -0.2515 
     48 C48        29.6504  -43.2194  -52.0829 C.3       11 UNK         0.0199 
     49 N          29.9065  -47.5038  -54.7898 N.am      5 UNK        -0.4607 
     50 C          29.7083  -48.1148  -55.9687 C.2       4 UNK         0.5031 
     51 O          28.6574  -48.0472  -56.6063 O.2       4 UNK        -0.5119 
     52 CA         30.8344  -49.0129  -56.5088 C.3       4 UNK         0.0263 
     53 CB         31.7417  -48.2116  -57.4546 C.3       4 UNK        -0.1967 
     54 N          31.6530  -49.6497  -55.4729 N.am      4 UNK        -0.4237 
     55 C          31.2063  -50.3937  -54.4489 C.2       3 UNK         0.4908 
     56 O          30.0197  -50.6726  -54.2752 O.2       3 UNK        -0.5102 
     57 CA         32.2421  -50.8824  -53.4195 C.3       3 UNK         0.0241 
     58 CB         32.5181  -52.3815  -53.6171 C.3       3 UNK        -0.1971 
     59 N          33.5147  -50.1483  -53.4306 N.am      3 UNK        -0.4139 
     60 C          33.6554  -48.8387  -53.1828 C.2       2 UNK         0.5016 
     61 O          32.7126  -48.0773  -52.9362 O.2       2 UNK        -0.5319 
     62 CA         35.0808  -48.2814  -53.2794 C.3       2 UNK         0.0286 
     63 CB         35.5605  -48.2243  -54.7427 C.3       2 UNK        -0.1963 
     64 N          35.0689  -46.9402  -52.7155 N.am      2 UNK        -0.4790 
     65 C          36.1087  -46.2652  -52.2137 C.2       1 UNK         0.5024 
     66 O          37.2600  -46.7031  -52.1902 O.2       1 UNK        -0.4888 
     67 H67        31.8407  -45.1703  -50.9588 H         1 UNK         0.0892 
     68 H68        31.9445  -45.8977  -49.3609 H         1 UNK         0.0892 
     69 H69        32.1081  -44.1477  -49.5347 H         1 UNK         0.0892 
     70 H70        33.8250  -44.2264  -51.9178 H         1 UNK         0.3107 
     71 H71        36.4133  -44.7761  -50.7272 H         1 UNK         0.0773 
     72 H72        36.2339  -42.7761  -52.0715 H         1 UNK         0.0680 
     73 H73        37.3190  -43.8709  -52.8566 H         1 UNK         0.0680 
     74 H74        34.5839  -41.3741  -54.5623 H         1 UNK         0.0650 
     75 H75        34.3951  -41.7655  -52.8745 H         1 UNK         0.0650 
     76 H76        32.2943  -42.6012  -52.0386 H         1 UNK         0.1397 
     77 H77        29.0568  -43.2704  -54.7726 H         1 UNK         0.1363 
     78 H78        32.9873  -42.4489  -56.2671 H         1 UNK         0.1355 
     79 H79        31.1285  -42.5567  -57.8018 H         1 UNK         0.0707 
     80 H80        29.4959  -42.4549  -57.1763 H         1 UNK         0.0707 
     81 H81        29.6192  -45.5194  -59.6985 H         1 UNK         0.1034 
     82 H82        29.9033  -43.8005  -59.6983 H         1 UNK         0.1034 
     83 H83        27.7107  -43.3867  -58.6283 H         1 UNK         0.0482 
     84 H84        26.0976  -45.0138  -61.9600 H         1 UNK         0.3460 
     85 H85        26.1498  -45.9153  -60.4650 H         1 UNK         0.3460 
     86 H86        27.7010  -46.1900  -58.0474 H         1 UNK         0.2989 
     87 H87        25.6027  -46.4070  -56.0777 H         1 UNK         0.0559 
     88 H88        23.4495  -46.5987  -58.2483 H         1 UNK         0.0848 
     89 H89        23.3372  -45.7082  -56.7384 H         1 UNK         0.0848 
     90 H90        23.4148  -47.4612  -56.7104 H         1 UNK         0.0848 
     91 H91        26.5450  -48.2150  -56.9275 H         1 UNK         0.3144 
     92 H92        26.2529  -50.1042  -59.8080 H         1 UNK         0.0727 
     93 H93        28.7270  -49.9195  -60.1181 H         1 UNK         0.0790 
     94 H94        28.7292  -48.3725  -59.2740 H         1 UNK         0.0790 
     95 H95        27.8893  -48.5395  -60.8076 H         1 UNK         0.0790 
     96 H96        27.8423  -49.7156  -57.2939 H         1 UNK         0.3215 
     97 H97        26.5573  -52.8028  -55.9909 H         1 UNK         0.0863 
     98 H98        28.9734  -53.2446  -55.6767 H         1 UNK         0.0808 
     99 H99        29.3864  -52.0005  -56.8527 H         1 UNK         0.0808 
    100 H100       28.5316  -53.4484  -57.3642 H         1 UNK         0.0808 
    101 H101       28.3553  -50.9251  -54.8431 H         1 UNK         0.3118 
    102 H102       25.8352  -49.2700  -52.8830 H         1 UNK         0.0546 
    103 H103       26.3634  -51.4738  -51.8645 H         1 UNK         0.0828 
    104 H104       27.3393  -50.2010  -51.1502 H         1 UNK         0.0828 
    105 H105       28.0536  -51.3084  -52.3200 H         1 UNK         0.0828 
    106 H106       28.7490  -49.2327  -53.5370 H         1 UNK         0.3005 
    107 H107       28.5697  -45.9424  -54.7870 H         1 UNK         0.1257 
    108 H108       30.4882  -45.6600  -53.0436 H         1 UNK         0.0775 
    109 H109       29.5816  -46.7064  -51.9938 H         1 UNK         0.0775 
    110 H110       29.0927  -42.3014  -51.8935 H         1 UNK         0.0840 
    111 H111       30.2260  -43.4132  -51.1780 H         1 UNK         0.0840 
    112 H112       30.7951  -47.6264  -54.3210 H         1 UNK         0.2987 
    113 H113       30.3640  -49.8106  -57.0856 H         1 UNK         0.0785 
    114 H114       32.2632  -47.4095  -56.9301 H         1 UNK         0.0798 
    115 H115       31.1604  -47.7503  -58.2546 H         1 UNK         0.0798 
    116 H116       32.4892  -48.8490  -57.9269 H         1 UNK         0.0798 
    117 H117       32.6459  -49.4795  -55.5227 H         1 UNK         0.3079 
    118 H118       31.7942  -50.7442  -52.4332 H         1 UNK         0.0794 
    119 H119       32.9924  -52.5820  -54.5787 H         1 UNK         0.0786 
    120 H120       31.5917  -52.9574  -53.5849 H         1 UNK         0.0786 
    121 H121       33.1662  -52.7735  -52.8330 H         1 UNK         0.0786 
    122 H122       34.3413  -50.6929  -53.6333 H         1 UNK         0.3032 
    123 H123       35.7450  -48.9167  -52.6888 H         1 UNK         0.1094 
    124 H124       35.5883  -49.2173  -55.1926 H         1 UNK         0.0794 
    125 H125       34.9064  -47.6028  -55.3560 H         1 UNK         0.0794 
    126 H126       36.5682  -47.8143  -54.8138 H         1 UNK         0.0794 
    127 H127       34.1401  -46.5421  -52.6477 H         1 UNK         0.3016 
@<TRIPOS>BOND
     1    1    2 1    
     2    1   67 1    
     3    1   68 1    
     4    1   69 1    
     5    2    3 2    
     6    2    4 am   BACKBONE|DICT|INTERRES
     7    4    5 1    
     8    4   70 1    
     9    5    6 1    
    10    5   65 1    
    11    5   71 1    
    12    6    7 1    
    13    6   72 1    
    14    6   73 1    
    15    7    8 1    
    16    8    9 1    
    17    8   74 1    
    18    8   75 1    
    19    9   10 ar   
    20    9   14 ar   
    21   10   11 ar   
    22   10   76 1    
    23   11   12 ar   
    24   11   48 1    
    25   12   13 ar   
    26   12   77 1    
    27   13   14 ar   
    28   13   15 1    
    29   14   78 1    
    30   15   16 1    
    31   15   79 1    
    32   15   80 1    
    33   16   17 1    
    34   17   18 1    
    35   17   81 1    
    36   17   82 1    
    37   18   19 1    
    38   18   22 1    
    39   18   83 1    
    40   19   20 am   BACKBONE|DICT|INTERRES
    41   19   21 2    
    42   20   84 1    
    43   20   85 1    
    44   22   23 am   BACKBONE|DICT|INTERRES
    45   22   86 1    
    46   23   24 2    
    47   23   25 1    
    48   25   26 1    
    49   25   27 1    
    50   25   87 1    
    51   26   88 1    
    52   26   89 1    
    53   26   90 1    
    54   27   28 am   BACKBONE|DICT|INTERRES
    55   27   91 1    
    56   28   29 2    
    57   28   30 1    
    58   30   31 1    
    59   30   32 1    
    60   30   92 1    
    61   31   93 1    
    62   31   94 1    
    63   31   95 1    
    64   32   33 am   BACKBONE|DICT|INTERRES
    65   32   96 1    
    66   33   34 2    
    67   33   35 1    
    68   35   36 1    
    69   35   37 1    
    70   35   97 1    
    71   36   98 1    
    72   36   99 1    
    73   36  100 1    
    74   37   38 am   BACKBONE|DICT|INTERRES
    75   37  101 1    
    76   38   39 2    
    77   38   40 1    
    78   40   41 1    
    79   40   42 1    
    80   40  102 1    
    81   41  103 1    
    82   41  104 1    
    83   41  105 1    
    84   42   43 am   BACKBONE|DICT|INTERRES
    85   42  106 1    
    86   43   44 2    
    87   43   45 1    
    88   45   46 1    
    89   45   49 1    
    90   45  107 1    
    91   46   47 1    
    92   46  108 1    
    93   46  109 1    
    94   47   48 1    
    95   48  110 1    
    96   48  111 1    
    97   49   50 am   BACKBONE|DICT|INTERRES
    98   49  112 1    
    99   50   51 2    
   100   50   52 1    
   101   52   53 1    
   102   52   54 1    
   103   52  113 1    
   104   53  114 1    
   105   53  115 1    
   106   53  116 1    
   107   54   55 am   BACKBONE|DICT|INTERRES
   108   54  117 1    
   109   55   56 2    
   110   55   57 1    
   111   57   58 1    
   112   57   59 1    
   113   57  118 1    
   114   58  119 1    
   115   58  120 1    
   116   58  121 1    
   117   59   60 am   BACKBONE|DICT|INTERRES
   118   59  122 1    
   119   60   61 2    
   120   60   62 1    
   121   62   63 1    
   122   62   64 1    
   123   62  123 1    
   124   63  124 1    
   125   63  125 1    
   126   63  126 1    
   127   64   65 am   BACKBONE|DICT|INTERRES
   128   64  127 1    
   129   65   66 2    
@<TRIPOS>SUBSTRUCTURE
     1 UNK         1 GROUP             0       ****    0 ROOT    
