@<TRIPOS>MOLECULE
3R134
127   129    1
SMALL
USER_CHARGES


@<TRIPOS>ATOM
      1 CA         28.6565  -46.1685  -49.5825 C.3       0 UNK        -0.1968 
      2 C          30.1738  -46.0609  -49.5341 C.2       0 UNK         0.4852 
      3 O          30.7631  -46.2028  -48.4611 O.2       0 UNK        -0.5359 
      4 N          30.8052  -45.8010  -50.6861 N.am      1 UNK        -0.4300 
      5 CA         32.2602  -45.7132  -50.8543 C.3       1 UNK         0.0863 
      6 C6         32.6414  -45.0775  -52.2152 C.3       11 UNK        -0.0953 
      7 S7         31.9415  -43.4043  -52.3998 S.3       11 UNK        -0.2369 
      8 C8         32.6812  -42.8691  -53.9749 C.3       11 UNK         0.0226 
      9 C9         32.1898  -43.6805  -55.1677 C.ar      11 UNK        -0.0699 
     10 C10        33.1042  -44.3643  -55.9760 C.ar      11 UNK        -0.0804 
     11 C11        32.6686  -45.0742  -57.0995 C.ar      11 UNK        -0.0871 
     12 C12        31.3060  -45.1088  -57.4024 C.ar      11 UNK        -0.1008 
     13 C13        30.3800  -44.4524  -56.5887 C.ar      11 UNK        -0.0735 
     14 C14        30.8269  -43.7267  -55.4812 C.ar      11 UNK        -0.0945 
     15 C15        28.8977  -44.5687  -56.8946 C.3       11 UNK         0.0169 
     16 S16        28.3858  -43.4280  -58.2178 S.3       11 UNK        -0.2669 
     17 C17        27.5104  -42.1351  -57.2651 C.3       11 UNK        -0.0850 
     18 CA         25.9758  -42.3674  -57.1850 C.3       10 UNK         0.0855 
     19 C          25.2513  -42.0232  -58.5215 C.2       10 UNK         0.5543 
     20 N          24.5586  -42.9516  -59.1723 N.am      10 UNK        -0.7343 
     21 O          25.3078  -40.8801  -58.9684 O.2       10 UNK        -0.5027 
     22 N          25.6760  -43.7018  -56.6503 N.am      10 UNK        -0.4495 
     23 C          24.5400  -44.0772  -56.0560 C.2       10 UNK         0.4903 
     24 O          23.6231  -43.3024  -55.7791 O.2       10 UNK        -0.4860 
     25 CA         24.4210  -45.5774  -55.7157 C.3       9 UNK         0.0227 
     26 CB         22.9542  -46.0424  -55.6000 C.3       9 UNK        -0.1964 
     27 N          25.1705  -46.4622  -56.6233 N.am      9 UNK        -0.4231 
     28 C          25.0084  -46.5884  -57.9531 C.2       9 UNK         0.5014 
     29 O          24.2445  -45.8810  -58.6118 O.2       9 UNK        -0.5270 
     30 CA         25.8374  -47.6614  -58.6921 C.3       8 UNK         0.0284 
     31 CB         26.8675  -47.0075  -59.6282 C.3       8 UNK        -0.1977 
     32 N          26.5221  -48.6044  -57.8024 N.am      8 UNK        -0.4342 
     33 C          25.9048  -49.5504  -57.0761 C.2       8 UNK         0.5039 
     34 O          24.7034  -49.8026  -57.1746 O.2       8 UNK        -0.5547 
     35 CA         26.7424  -50.3269  -56.0389 C.3       7 UNK         0.0281 
     36 CB         27.0706  -51.7346  -56.5616 C.3       7 UNK        -0.1963 
     37 N          27.9892  -49.6661  -55.6406 N.am      7 UNK        -0.4444 
     38 C          28.0992  -48.4420  -55.1014 C.2       7 UNK         0.5104 
     39 O          27.1348  -47.7314  -54.8157 O.2       7 UNK        -0.5100 
     40 CA         29.5232  -47.8858  -54.9140 C.3       6 UNK         0.0396 
     41 CB         29.9619  -48.0516  -53.4536 C.3       6 UNK        -0.1801 
     42 N          30.5300  -48.4862  -55.8001 N.am      6 UNK        -0.4747 
     43 C          30.4759  -48.5049  -57.1444 C.2       6 UNK         0.5012 
     44 O          29.5562  -47.9988  -57.7899 O.2       6 UNK        -0.5003 
     45 CA         31.5781  -49.2715  -57.9075 C.3       5 UNK         0.0782 
     46 C46        32.5529  -48.3227  -58.6508 C.3       11 UNK        -0.0868 
     47 S47        33.8209  -47.5507  -57.5817 S.3       11 UNK        -0.2515 
     48 C48        33.6725  -45.7844  -57.9949 C.3       11 UNK         0.0199 
     49 N          32.2898  -50.2561  -57.0875 N.am      5 UNK        -0.4607 
     50 C          31.7477  -51.3441  -56.5260 C.2       4 UNK         0.5031 
     51 O          30.5717  -51.6753  -56.6791 O.2       4 UNK        -0.5119 
     52 CA         32.6599  -52.1849  -55.6133 C.3       4 UNK         0.0263 
     53 CB         33.2118  -53.3965  -56.3815 C.3       4 UNK        -0.1967 
     54 N          33.7774  -51.4395  -55.0149 N.am      4 UNK        -0.4237 
     55 C          33.6446  -50.4034  -54.1750 C.2       3 UNK         0.4908 
     56 O          32.5588  -49.9147  -53.8567 O.2       3 UNK        -0.5102 
     57 CA         34.9371  -49.7902  -53.6278 C.3       3 UNK         0.0241 
     58 CB         35.4873  -48.7185  -54.5861 C.3       3 UNK        -0.1971 
     59 N          34.6524  -49.1975  -52.3251 N.am      3 UNK        -0.4139 
     60 C          35.5491  -48.9163  -51.3748 C.2       2 UNK         0.5016 
     61 O          36.7602  -49.1053  -51.5084 O.2       2 UNK        -0.5319 
     62 CA         35.0020  -48.3156  -50.0621 C.3       2 UNK         0.0286 
     63 CB         36.1164  -47.9863  -49.0502 C.3       2 UNK        -0.1963 
     64 N          34.1997  -47.1075  -50.2867 N.am      2 UNK        -0.4790 
     65 C          32.9236  -47.0969  -50.6922 C.2       1 UNK         0.5024 
     66 O          32.2948  -48.1237  -50.9601 O.2       1 UNK        -0.4888 
     67 H67        28.2065  -45.4324  -48.9168 H         1 UNK         0.0892 
     68 H68        28.2666  -46.0004  -50.5863 H         1 UNK         0.0892 
     69 H69        28.3411  -47.1599  -49.2584 H         1 UNK         0.0892 
     70 H70        30.2681  -45.6818  -51.5314 H         1 UNK         0.3107 
     71 H71        32.6421  -45.0701  -50.0581 H         1 UNK         0.0773 
     72 H72        32.2967  -45.6942  -53.0470 H         1 UNK         0.0680 
     73 H73        33.7260  -45.0033  -52.3152 H         1 UNK         0.0680 
     74 H74        33.7679  -42.9153  -53.8887 H         1 UNK         0.0650 
     75 H75        32.4309  -41.8202  -54.1389 H         1 UNK         0.0650 
     76 H76        34.1591  -44.3327  -55.7397 H         1 UNK         0.1397 
     77 H77        30.9577  -45.6576  -58.2661 H         1 UNK         0.1363 
     78 H78        30.1156  -43.2068  -54.8542 H         1 UNK         0.1355 
     79 H79        28.6761  -45.5883  -57.2068 H         1 UNK         0.0707 
     80 H80        28.3122  -44.4071  -55.9886 H         1 UNK         0.0707 
     81 H81        27.9292  -42.0828  -56.2590 H         1 UNK         0.1034 
     82 H82        27.7313  -41.1642  -57.7126 H         1 UNK         0.1034 
     83 H83        25.5901  -41.6448  -56.4633 H         1 UNK         0.0482 
     84 H84        24.4956  -43.9028  -58.8252 H         1 UNK         0.3460 
     85 H85        24.0937  -42.7036  -60.0307 H         1 UNK         0.3460 
     86 H86        26.3504  -44.4160  -56.8770 H         1 UNK         0.2989 
     87 H87        24.8821  -45.6987  -54.7345 H         1 UNK         0.0559 
     88 H88        22.4092  -45.8946  -56.5330 H         1 UNK         0.0848 
     89 H89        22.4255  -45.4882  -54.8235 H         1 UNK         0.0848 
     90 H90        22.8926  -47.0991  -55.3398 H         1 UNK         0.0848 
     91 H91        25.8503  -47.0617  -56.1625 H         1 UNK         0.3144 
     92 H92        25.1386  -48.2296  -59.3096 H         1 UNK         0.0727 
     93 H93        27.6048  -46.4241  -59.0786 H         1 UNK         0.0790 
     94 H94        26.3827  -46.3328  -60.3353 H         1 UNK         0.0790 
     95 H95        27.4039  -47.7557  -60.2120 H         1 UNK         0.0790 
     96 H96        27.5223  -48.4719  -57.6855 H         1 UNK         0.3215 
     97 H97        26.1276  -50.4266  -55.1420 H         1 UNK         0.0863 
     98 H98        27.5822  -52.3308  -55.8057 H         1 UNK         0.0808 
     99 H99        27.7092  -51.6968  -57.4454 H         1 UNK         0.0808 
    100 H100       26.1624  -52.2726  -56.8371 H         1 UNK         0.0808 
    101 H101       28.8458  -50.1628  -55.8511 H         1 UNK         0.3118 
    102 H102       29.4901  -46.8189  -55.1368 H         1 UNK         0.0546 
    103 H103       30.9452  -47.6153  -53.2863 H         1 UNK         0.0828 
    104 H104       30.0140  -49.1019  -53.1638 H         1 UNK         0.0828 
    105 H105       29.2645  -47.5606  -52.7742 H         1 UNK         0.0828 
    106 H106       31.3094  -48.9463  -55.3417 H         1 UNK         0.3005 
    107 H107       31.0441  -49.8395  -58.6731 H         1 UNK         0.1257 
    108 H108       33.0874  -48.8927  -59.4122 H         1 UNK         0.0775 
    109 H109       32.0025  -47.5604  -59.2043 H         1 UNK         0.0775 
    110 H110       34.6553  -45.3232  -57.8861 H         1 UNK         0.0840 
    111 H111       33.4027  -45.6602  -59.0447 H         1 UNK         0.0840 
    112 H112       33.2583  -50.0450  -56.8962 H         1 UNK         0.2987 
    113 H113       32.0377  -52.5539  -54.7951 H         1 UNK         0.0785 
    114 H114       33.8674  -53.0926  -57.1986 H         1 UNK         0.0798 
    115 H115       32.4022  -53.9854  -56.8155 H         1 UNK         0.0798 
    116 H116       33.7754  -54.0605  -55.7258 H         1 UNK         0.0798 
    117 H117       34.7067  -51.7676  -55.2376 H         1 UNK         0.3079 
    118 H118       35.6748  -50.5857  -53.5022 H         1 UNK         0.0794 
    119 H119       34.7867  -47.8905  -54.7027 H         1 UNK         0.0786 
    120 H120       35.6757  -49.1334  -55.5769 H         1 UNK         0.0786 
    121 H121       36.4304  -48.3073  -54.2262 H         1 UNK         0.0786 
    122 H122       33.6654  -49.0327  -52.1371 H         1 UNK         0.3032 
    123 H123       34.3656  -49.0805  -49.6102 H         1 UNK         0.1094 
    124 H124       35.7037  -47.6187  -48.1104 H         1 UNK         0.0794 
    125 H125       36.7067  -48.8733  -48.8152 H         1 UNK         0.0794 
    126 H126       36.8021  -47.2305  -49.4352 H         1 UNK         0.0794 
    127 H127       34.6664  -46.2259  -50.1248 H         1 UNK         0.3016 
@<TRIPOS>BOND
     1    1    2 1    
     2    1   67 1    
     3    1   68 1    
     4    1   69 1    
     5    2    3 2    
     6    2    4 am   BACKBONE|DICT|INTERRES
     7    4    5 1    
     8    4   70 1    
     9    5    6 1    
    10    5   65 1    
    11    5   71 1    
    12    6    7 1    
    13    6   72 1    
    14    6   73 1    
    15    7    8 1    
    16    8    9 1    
    17    8   74 1    
    18    8   75 1    
    19    9   10 ar   
    20    9   14 ar   
    21   10   11 ar   
    22   10   76 1    
    23   11   12 ar   
    24   11   48 1    
    25   12   13 ar   
    26   12   77 1    
    27   13   14 ar   
    28   13   15 1    
    29   14   78 1    
    30   15   16 1    
    31   15   79 1    
    32   15   80 1    
    33   16   17 1    
    34   17   18 1    
    35   17   81 1    
    36   17   82 1    
    37   18   19 1    
    38   18   22 1    
    39   18   83 1    
    40   19   20 am   BACKBONE|DICT|INTERRES
    41   19   21 2    
    42   20   84 1    
    43   20   85 1    
    44   22   23 am   BACKBONE|DICT|INTERRES
    45   22   86 1    
    46   23   24 2    
    47   23   25 1    
    48   25   26 1    
    49   25   27 1    
    50   25   87 1    
    51   26   88 1    
    52   26   89 1    
    53   26   90 1    
    54   27   28 am   BACKBONE|DICT|INTERRES
    55   27   91 1    
    56   28   29 2    
    57   28   30 1    
    58   30   31 1    
    59   30   32 1    
    60   30   92 1    
    61   31   93 1    
    62   31   94 1    
    63   31   95 1    
    64   32   33 am   BACKBONE|DICT|INTERRES
    65   32   96 1    
    66   33   34 2    
    67   33   35 1    
    68   35   36 1    
    69   35   37 1    
    70   35   97 1    
    71   36   98 1    
    72   36   99 1    
    73   36  100 1    
    74   37   38 am   BACKBONE|DICT|INTERRES
    75   37  101 1    
    76   38   39 2    
    77   38   40 1    
    78   40   41 1    
    79   40   42 1    
    80   40  102 1    
    81   41  103 1    
    82   41  104 1    
    83   41  105 1    
    84   42   43 am   BACKBONE|DICT|INTERRES
    85   42  106 1    
    86   43   44 2    
    87   43   45 1    
    88   45   46 1    
    89   45   49 1    
    90   45  107 1    
    91   46   47 1    
    92   46  108 1    
    93   46  109 1    
    94   47   48 1    
    95   48  110 1    
    96   48  111 1    
    97   49   50 am   BACKBONE|DICT|INTERRES
    98   49  112 1    
    99   50   51 2    
   100   50   52 1    
   101   52   53 1    
   102   52   54 1    
   103   52  113 1    
   104   53  114 1    
   105   53  115 1    
   106   53  116 1    
   107   54   55 am   BACKBONE|DICT|INTERRES
   108   54  117 1    
   109   55   56 2    
   110   55   57 1    
   111   57   58 1    
   112   57   59 1    
   113   57  118 1    
   114   58  119 1    
   115   58  120 1    
   116   58  121 1    
   117   59   60 am   BACKBONE|DICT|INTERRES
   118   59  122 1    
   119   60   61 2    
   120   60   62 1    
   121   62   63 1    
   122   62   64 1    
   123   62  123 1    
   124   63  124 1    
   125   63  125 1    
   126   63  126 1    
   127   64   65 am   BACKBONE|DICT|INTERRES
   128   64  127 1    
   129   65   66 2    
@<TRIPOS>SUBSTRUCTURE
     1 UNK         1 GROUP             0       ****    0 ROOT    
