@<TRIPOS>MOLECULE
3R134
127   129    1
SMALL
USER_CHARGES


@<TRIPOS>ATOM
      1 CA         33.6852  -46.6090  -47.7485 C.3       0 UNK        -0.1968 
      2 C          33.7060  -46.1230  -49.1903 C.2       0 UNK         0.4852 
      3 O          32.8259  -46.4926  -49.9677 O.2       0 UNK        -0.5359 
      4 N          34.7024  -45.2985  -49.5454 N.am      1 UNK        -0.4300 
      5 CA         34.9549  -44.7286  -50.8747 C.3       1 UNK         0.0863 
      6 C6         33.7510  -43.9299  -51.4494 C.3       11 UNK        -0.0953 
      7 S7         34.2491  -42.5679  -52.5582 S.3       11 UNK        -0.2369 
      8 C8         34.0326  -43.3002  -54.2208 C.3       11 UNK         0.0226 
      9 C9         32.5940  -43.5059  -54.7073 C.ar      11 UNK        -0.0699 
     10 C10        31.4735  -43.3554  -53.8769 C.ar      11 UNK        -0.0804 
     11 C11        30.1896  -43.6378  -54.3495 C.ar      11 UNK        -0.0871 
     12 C12        30.0155  -44.0011  -55.6853 C.ar      11 UNK        -0.1008 
     13 C13        31.1127  -44.1272  -56.5365 C.ar      11 UNK        -0.0735 
     14 C14        32.3983  -43.8909  -56.0401 C.ar      11 UNK        -0.0945 
     15 C15        30.8855  -44.5254  -57.9852 C.3       11 UNK         0.0169 
     16 S16        30.2395  -43.1151  -58.9349 S.3       11 UNK        -0.2669 
     17 C17        29.1936  -43.9363  -60.1847 C.3       11 UNK        -0.0850 
     18 CA         27.6861  -43.8888  -59.8072 C.3       10 UNK         0.0855 
     19 C          26.7759  -44.1880  -61.0374 C.2       10 UNK         0.5543 
     20 N          25.8396  -45.1282  -60.9801 N.am      10 UNK        -0.7343 
     21 O          26.9153  -43.5399  -62.0717 O.2       10 UNK        -0.5027 
     22 N          27.4006  -44.7251  -58.6294 N.am      10 UNK        -0.4495 
     23 C          26.3996  -44.5282  -57.7612 C.2       10 UNK         0.4903 
     24 O          25.6579  -43.5451  -57.7796 O.2       10 UNK        -0.4860 
     25 CA         26.1919  -45.6394  -56.7089 C.3       9 UNK         0.0227 
     26 CB         24.8054  -45.5850  -56.0349 C.3       9 UNK        -0.1964 
     27 N          26.4654  -46.9821  -57.2422 N.am      9 UNK        -0.4231 
     28 C          25.8586  -47.5773  -58.2803 C.2       9 UNK         0.5014 
     29 O          24.9205  -47.0776  -58.9018 O.2       9 UNK        -0.5270 
     30 CA         26.4211  -48.9230  -58.7561 C.3       8 UNK         0.0284 
     31 CB         27.5451  -48.6923  -59.7824 C.3       8 UNK        -0.1977 
     32 N          26.9301  -49.7607  -57.6640 N.am      8 UNK        -0.4342 
     33 C          26.6082  -51.0508  -57.4982 C.2       8 UNK         0.5039 
     34 O          25.7788  -51.6445  -58.1898 O.2       8 UNK        -0.5547 
     35 CA         27.3507  -51.8421  -56.4087 C.3       7 UNK         0.0281 
     36 CB         28.6380  -52.4604  -56.9777 C.3       7 UNK        -0.1963 
     37 N          27.6713  -51.0745  -55.2041 N.am      7 UNK        -0.4444 
     38 C          26.7700  -50.7288  -54.2736 C.2       7 UNK         0.5104 
     39 O          25.5573  -50.9052  -54.3919 O.2       7 UNK        -0.5100 
     40 CA         27.3172  -50.1116  -52.9774 C.3       6 UNK         0.0396 
     41 CB         27.9109  -51.1996  -52.0676 C.3       6 UNK        -0.1801 
     42 N          28.3356  -49.1021  -53.2558 N.am      6 UNK        -0.4747 
     43 C          28.0687  -47.8100  -53.4906 C.2       6 UNK         0.5012 
     44 O          26.9405  -47.3212  -53.4272 O.2       6 UNK        -0.5003 
     45 CA         29.2552  -46.9231  -53.9166 C.3       5 UNK         0.0782 
     46 C46        29.9460  -46.2441  -52.7070 C.3       11 UNK        -0.0868 
     47 S47        29.0745  -44.7827  -52.0328 S.3       11 UNK        -0.2515 
     48 C48        28.9883  -43.5838  -53.4148 C.3       11 UNK         0.0199 
     49 N          30.2274  -47.6502  -54.7403 N.am      5 UNK        -0.4607 
     50 C          29.9718  -48.1376  -55.9629 C.2       4 UNK         0.5031 
     51 O          28.8939  -47.9924  -56.5356 O.2       4 UNK        -0.5119 
     52 CA         31.0650  -48.9627  -56.6630 C.3       4 UNK         0.0263 
     53 CB         31.8778  -48.0664  -57.6093 C.3       4 UNK        -0.1967 
     54 N          31.9747  -49.6484  -55.7450 N.am      4 UNK        -0.4237 
     55 C          31.6206  -50.5159  -54.7846 C.2       3 UNK         0.4908 
     56 O          30.4678  -50.9141  -54.6109 O.2       3 UNK        -0.5102 
     57 CA         32.7293  -50.9516  -53.8080 C.3       3 UNK         0.0241 
     58 CB         33.3294  -52.2967  -54.2462 C.3       3 UNK        -0.1971 
     59 N          33.8046  -49.9595  -53.6488 N.am      3 UNK        -0.4139 
     60 C          33.6235  -48.7000  -53.2244 C.2       2 UNK         0.5016 
     61 O          32.5239  -48.2348  -52.9125 O.2       2 UNK        -0.5319 
     62 CA         34.8513  -47.7844  -53.2331 C.3       2 UNK         0.0286 
     63 CB         35.0880  -47.2327  -54.6541 C.3       2 UNK        -0.1963 
     64 N          34.6015  -46.6918  -52.2996 N.am      2 UNK        -0.4790 
     65 C          35.4872  -45.7980  -51.8499 C.2       1 UNK         0.5024 
     66 O          36.6795  -45.8002  -52.1589 O.2       1 UNK        -0.4888 
     67 H67        32.7555  -46.3086  -47.2661 H         1 UNK         0.0892 
     68 H68        33.7483  -47.6964  -47.7192 H         1 UNK         0.0892 
     69 H69        34.5144  -46.2050  -47.1680 H         1 UNK         0.0892 
     70 H70        35.3975  -45.0598  -48.8513 H         1 UNK         0.3107 
     71 H71        35.7716  -44.0224  -50.7146 H         1 UNK         0.0773 
     72 H72        33.0288  -44.5836  -51.9394 H         1 UNK         0.0680 
     73 H73        33.2021  -43.4615  -50.6311 H         1 UNK         0.0680 
     74 H74        34.5560  -44.2557  -54.2540 H         1 UNK         0.0650 
     75 H75        34.5446  -42.6487  -54.9303 H         1 UNK         0.0650 
     76 H76        31.5807  -43.0586  -52.8448 H         1 UNK         0.1397 
     77 H77        29.0246  -44.1946  -56.0699 H         1 UNK         0.1363 
     78 H78        33.2514  -44.0047  -56.6951 H         1 UNK         0.1355 
     79 H79        30.1803  -45.3567  -58.0165 H         1 UNK         0.0707 
     80 H80        31.8085  -44.8812  -58.4455 H         1 UNK         0.0707 
     81 H81        29.5264  -44.9623  -60.3507 H         1 UNK         0.1034 
     82 H82        29.3717  -43.4125  -61.1260 H         1 UNK         0.1034 
     83 H83        27.4557  -42.8555  -59.5401 H         1 UNK         0.0482 
     84 H84        25.2658  -45.2902  -61.7921 H         1 UNK         0.3460 
     85 H85        25.6630  -45.6562  -60.1336 H         1 UNK         0.3460 
     86 H86        27.9394  -45.5732  -58.5487 H         1 UNK         0.2989 
     87 H87        26.9361  -45.4649  -55.9319 H         1 UNK         0.0559 
     88 H88        23.9971  -45.7031  -56.7572 H         1 UNK         0.0848 
     89 H89        24.6531  -44.6307  -55.5294 H         1 UNK         0.0848 
     90 H90        24.7024  -46.3674  -55.2828 H         1 UNK         0.0848 
     91 H91        27.2969  -47.4328  -56.8608 H         1 UNK         0.3144 
     92 H92        25.5999  -49.4280  -59.2690 H         1 UNK         0.0727 
     93 H93        27.8785  -49.6342  -60.2183 H         1 UNK         0.0790 
     94 H94        28.4128  -48.2081  -59.3326 H         1 UNK         0.0790 
     95 H95        27.2045  -48.0595  -60.6034 H         1 UNK         0.0790 
     96 H96        27.6254  -49.3424  -57.0538 H         1 UNK         0.3215 
     97 H97        26.6968  -52.6648  -56.1100 H         1 UNK         0.0863 
     98 H98        29.1358  -53.0905  -56.2402 H         1 UNK         0.0808 
     99 H99        29.3470  -51.6981  -57.2980 H         1 UNK         0.0808 
    100 H100       28.4203  -53.0865  -57.8441 H         1 UNK         0.0808 
    101 H101       28.6592  -50.9333  -55.0017 H         1 UNK         0.3118 
    102 H102       26.4829  -49.6516  -52.4432 H         1 UNK         0.0546 
    103 H103       27.1670  -51.9636  -51.8381 H         1 UNK         0.0828 
    104 H104       28.2473  -50.7810  -51.1190 H         1 UNK         0.0828 
    105 H105       28.7610  -51.7017  -52.5314 H         1 UNK         0.0828 
    106 H106       29.2836  -49.4332  -53.3849 H         1 UNK         0.3005 
    107 H107       28.8308  -46.1510  -54.5554 H         1 UNK         0.1257 
    108 H108       30.9510  -45.9214  -52.9815 H         1 UNK         0.0775 
    109 H109       30.1015  -46.9596  -51.8969 H         1 UNK         0.0775 
    110 H110       28.0638  -43.7631  -53.9661 H         1 UNK         0.0840 
    111 H111       28.9009  -42.5776  -53.0027 H         1 UNK         0.0840 
    112 H112       31.1239  -47.8389  -54.3020 H         1 UNK         0.2987 
    113 H113       30.5660  -49.7252  -57.2619 H         1 UNK         0.0785 
    114 H114       32.3889  -47.2668  -57.0708 H         1 UNK         0.0798 
    115 H115       31.2307  -47.6002  -58.3533 H         1 UNK         0.0798 
    116 H116       32.6284  -48.6391  -58.1544 H         1 UNK         0.0798 
    117 H117       32.9483  -49.3915  -55.8048 H         1 UNK         0.3079 
    118 H118       32.2603  -51.0863  -52.8311 H         1 UNK         0.0794 
    119 H119       33.8395  -52.2190  -55.2072 H         1 UNK         0.0786 
    120 H120       32.5517  -53.0550  -54.3505 H         1 UNK         0.0786 
    121 H121       34.0455  -52.6699  -53.5137 H         1 UNK         0.0786 
    122 H122       34.7364  -50.2616  -53.8966 H         1 UNK         0.3032 
    123 H123       35.7234  -48.3483  -52.8950 H         1 UNK         0.1094 
    124 H124       35.9585  -46.5781  -54.6930 H         1 UNK         0.0794 
    125 H125       35.2667  -48.0390  -55.3662 H         1 UNK         0.0794 
    126 H126       34.2278  -46.6648  -55.0120 H         1 UNK         0.0794 
    127 H127       33.6583  -46.6782  -51.9157 H         1 UNK         0.3016 
@<TRIPOS>BOND
     1    1    2 1    
     2    1   67 1    
     3    1   68 1    
     4    1   69 1    
     5    2    3 2    
     6    2    4 am   BACKBONE|DICT|INTERRES
     7    4    5 1    
     8    4   70 1    
     9    5    6 1    
    10    5   65 1    
    11    5   71 1    
    12    6    7 1    
    13    6   72 1    
    14    6   73 1    
    15    7    8 1    
    16    8    9 1    
    17    8   74 1    
    18    8   75 1    
    19    9   10 ar   
    20    9   14 ar   
    21   10   11 ar   
    22   10   76 1    
    23   11   12 ar   
    24   11   48 1    
    25   12   13 ar   
    26   12   77 1    
    27   13   14 ar   
    28   13   15 1    
    29   14   78 1    
    30   15   16 1    
    31   15   79 1    
    32   15   80 1    
    33   16   17 1    
    34   17   18 1    
    35   17   81 1    
    36   17   82 1    
    37   18   19 1    
    38   18   22 1    
    39   18   83 1    
    40   19   20 am   BACKBONE|DICT|INTERRES
    41   19   21 2    
    42   20   84 1    
    43   20   85 1    
    44   22   23 am   BACKBONE|DICT|INTERRES
    45   22   86 1    
    46   23   24 2    
    47   23   25 1    
    48   25   26 1    
    49   25   27 1    
    50   25   87 1    
    51   26   88 1    
    52   26   89 1    
    53   26   90 1    
    54   27   28 am   BACKBONE|DICT|INTERRES
    55   27   91 1    
    56   28   29 2    
    57   28   30 1    
    58   30   31 1    
    59   30   32 1    
    60   30   92 1    
    61   31   93 1    
    62   31   94 1    
    63   31   95 1    
    64   32   33 am   BACKBONE|DICT|INTERRES
    65   32   96 1    
    66   33   34 2    
    67   33   35 1    
    68   35   36 1    
    69   35   37 1    
    70   35   97 1    
    71   36   98 1    
    72   36   99 1    
    73   36  100 1    
    74   37   38 am   BACKBONE|DICT|INTERRES
    75   37  101 1    
    76   38   39 2    
    77   38   40 1    
    78   40   41 1    
    79   40   42 1    
    80   40  102 1    
    81   41  103 1    
    82   41  104 1    
    83   41  105 1    
    84   42   43 am   BACKBONE|DICT|INTERRES
    85   42  106 1    
    86   43   44 2    
    87   43   45 1    
    88   45   46 1    
    89   45   49 1    
    90   45  107 1    
    91   46   47 1    
    92   46  108 1    
    93   46  109 1    
    94   47   48 1    
    95   48  110 1    
    96   48  111 1    
    97   49   50 am   BACKBONE|DICT|INTERRES
    98   49  112 1    
    99   50   51 2    
   100   50   52 1    
   101   52   53 1    
   102   52   54 1    
   103   52  113 1    
   104   53  114 1    
   105   53  115 1    
   106   53  116 1    
   107   54   55 am   BACKBONE|DICT|INTERRES
   108   54  117 1    
   109   55   56 2    
   110   55   57 1    
   111   57   58 1    
   112   57   59 1    
   113   57  118 1    
   114   58  119 1    
   115   58  120 1    
   116   58  121 1    
   117   59   60 am   BACKBONE|DICT|INTERRES
   118   59  122 1    
   119   60   61 2    
   120   60   62 1    
   121   62   63 1    
   122   62   64 1    
   123   62  123 1    
   124   63  124 1    
   125   63  125 1    
   126   63  126 1    
   127   64   65 am   BACKBONE|DICT|INTERRES
   128   64  127 1    
   129   65   66 2    
@<TRIPOS>SUBSTRUCTURE
     1 UNK         1 GROUP             0       ****    0 ROOT    
