@<TRIPOS>MOLECULE
3R134
127   129    1
SMALL
USER_CHARGES


@<TRIPOS>ATOM
      1 CA         39.3366  -46.2008  -53.5080 C.3       0 UNK        -0.1968 
      2 C          37.9389  -46.7517  -53.7468 C.2       0 UNK         0.4852 
      3 O          37.7969  -47.8992  -54.1729 O.2       0 UNK        -0.5359 
      4 N          36.9026  -45.9518  -53.4630 N.am      1 UNK        -0.4300 
      5 CA         35.4814  -46.2782  -53.6443 C.3       1 UNK         0.0863 
      6 C6         34.6261  -44.9925  -53.7997 C.3       11 UNK        -0.0953 
      7 S7         34.9530  -44.1442  -55.3805 S.3       11 UNK        -0.2369 
      8 C8         34.1371  -42.5382  -55.1128 C.3       11 UNK         0.0226 
      9 C9         32.6244  -42.6700  -54.9949 C.ar      11 UNK        -0.0699 
     10 C10        32.0340  -42.8245  -53.7385 C.ar      11 UNK        -0.0804 
     11 C11        30.6485  -42.9465  -53.6155 C.ar      11 UNK        -0.0871 
     12 C12        29.8462  -42.8734  -54.7549 C.ar      11 UNK        -0.1008 
     13 C13        30.4211  -42.7380  -56.0231 C.ar      11 UNK        -0.0735 
     14 C14        31.8134  -42.6339  -56.1345 C.ar      11 UNK        -0.0945 
     15 C15        29.5492  -42.7023  -57.2744 C.3       11 UNK         0.0169 
     16 S16        28.3876  -44.1078  -57.3604 S.3       11 UNK        -0.2669 
     17 C17        26.8539  -43.3982  -56.6518 C.3       11 UNK        -0.0850 
     18 CA         25.5748  -43.7971  -57.4330 C.3       10 UNK         0.0855 
     19 C          25.5502  -43.1959  -58.8719 C.2       10 UNK         0.5543 
     20 N          25.5890  -43.9922  -59.9347 N.am      10 UNK        -0.7343 
     21 O          25.4840  -41.9782  -59.0215 O.2       10 UNK        -0.5027 
     22 N          25.3455  -45.2447  -57.3454 N.am      10 UNK        -0.4495 
     23 C          24.2175  -45.8829  -57.6762 C.2       10 UNK         0.4903 
     24 O          23.1742  -45.3081  -57.9918 O.2       10 UNK        -0.4860 
     25 CA         24.2785  -47.4252  -57.6633 C.3       9 UNK         0.0227 
     26 CB         23.1780  -48.0694  -58.5315 C.3       9 UNK        -0.1964 
     27 N          25.5956  -47.9696  -58.0264 N.am      9 UNK        -0.4231 
     28 C          26.3026  -47.7310  -59.1443 C.2       9 UNK         0.5014 
     29 O          25.9174  -46.9853  -60.0468 O.2       9 UNK        -0.5270 
     30 CA         27.6806  -48.4073  -59.2814 C.3       8 UNK         0.0284 
     31 CB         28.7923  -47.3594  -59.4569 C.3       8 UNK        -0.1977 
     32 N          28.0113  -49.2661  -58.1399 N.am      8 UNK        -0.4342 
     33 C          27.7026  -50.5676  -58.0614 C.2       8 UNK         0.5039 
     34 O          27.1567  -51.1977  -58.9681 O.2       8 UNK        -0.5547 
     35 CA         28.0258  -51.2870  -56.7402 C.3       7 UNK         0.0281 
     36 CB         29.4893  -51.7531  -56.7210 C.3       7 UNK        -0.1963 
     37 N          27.7339  -50.4910  -55.5416 N.am      7 UNK        -0.4444 
     38 C          26.5067  -50.0689  -55.1978 C.2       7 UNK         0.5104 
     39 O          25.5055  -50.2293  -55.8947 O.2       7 UNK        -0.5100 
     40 CA         26.3680  -49.3316  -53.8599 C.3       6 UNK         0.0396 
     41 CB         26.3936  -50.3235  -52.6860 C.3       6 UNK        -0.1801 
     42 N          27.4203  -48.3372  -53.6820 N.am      6 UNK        -0.4747 
     43 C          27.4251  -47.1177  -54.2404 C.2       6 UNK         0.5012 
     44 O          26.5214  -46.6761  -54.9492 O.2       6 UNK        -0.5003 
     45 CA         28.6802  -46.2652  -53.9643 C.3       5 UNK         0.0782 
     46 C46        28.5612  -45.6201  -52.5526 C.3       11 UNK        -0.0868 
     47 S47        30.1098  -44.9640  -51.8374 S.3       11 UNK        -0.2515 
     48 C48        30.0304  -43.1941  -52.2517 C.3       11 UNK         0.0199 
     49 N          29.9104  -47.0428  -54.1427 N.am      5 UNK        -0.4607 
     50 C          30.2576  -47.7337  -55.2400 C.2       4 UNK         0.5031 
     51 O          29.5874  -47.7880  -56.2701 O.2       4 UNK        -0.5119 
     52 CA         31.5444  -48.5654  -55.1504 C.3       4 UNK         0.0263 
     53 CB         32.7379  -47.7749  -55.7017 C.3       4 UNK        -0.1967 
     54 N          31.8300  -49.0370  -53.7927 N.am      4 UNK        -0.4237 
     55 C          31.0599  -49.8892  -53.0982 C.2       3 UNK         0.4908 
     56 O          29.9913  -50.3336  -53.5267 O.2       3 UNK        -0.5102 
     57 CA         31.5212  -50.2738  -51.6761 C.3       3 UNK         0.0241 
     58 CB         31.3782  -51.7882  -51.4170 C.3       3 UNK        -0.1971 
     59 N          32.8648  -49.7905  -51.3128 N.am      3 UNK        -0.4139 
     60 C          34.0436  -50.1549  -51.8408 C.2       2 UNK         0.5016 
     61 O          34.1771  -50.9992  -52.7281 O.2       2 UNK        -0.5319 
     62 CA         35.2784  -49.3844  -51.3417 C.3       2 UNK         0.0286 
     63 CB         36.4849  -50.3162  -51.1323 C.3       2 UNK        -0.1963 
     64 N          35.6474  -48.3342  -52.2934 N.am      2 UNK        -0.4790 
     65 C          34.9482  -47.2176  -52.5346 C.2       1 UNK         0.5024 
     66 O          33.9154  -46.9359  -51.9247 O.2       1 UNK        -0.4888 
     67 H67        39.8640  -46.8181  -52.7813 H         1 UNK         0.0892 
     68 H68        39.9053  -46.2071  -54.4375 H         1 UNK         0.0892 
     69 H69        39.3137  -45.1782  -53.1319 H         1 UNK         0.0892 
     70 H70        37.0856  -45.0282  -53.0975 H         1 UNK         0.3107 
     71 H71        35.3877  -46.8455  -54.5725 H         1 UNK         0.0773 
     72 H72        33.5592  -45.2169  -53.7728 H         1 UNK         0.0680 
     73 H73        34.8114  -44.3063  -52.9716 H         1 UNK         0.0680 
     74 H74        34.5497  -42.0668  -54.2195 H         1 UNK         0.0650 
     75 H75        34.3842  -41.8777  -55.9451 H         1 UNK         0.0650 
     76 H76        32.6556  -42.8745  -52.8550 H         1 UNK         0.1397 
     77 H77        28.7744  -42.9537  -54.6540 H         1 UNK         0.1363 
     78 H78        32.2704  -42.5247  -57.1086 H         1 UNK         0.1355 
     79 H79        30.1753  -42.7404  -58.1671 H         1 UNK         0.0707 
     80 H80        29.0156  -41.7528  -57.3230 H         1 UNK         0.0707 
     81 H81        26.9296  -42.3111  -56.5961 H         1 UNK         0.1034 
     82 H82        26.7647  -43.7375  -55.6189 H         1 UNK         0.1034 
     83 H83        24.7348  -43.3306  -56.9151 H         1 UNK         0.0482 
     84 H84        25.5680  -43.5859  -60.8559 H         1 UNK         0.3460 
     85 H85        25.6533  -44.9994  -59.8295 H         1 UNK         0.3460 
     86 H86        26.1377  -45.7979  -57.0467 H         1 UNK         0.2989 
     87 H87        24.1041  -47.7248  -56.6289 H         1 UNK         0.0559 
     88 H88        22.1847  -47.7739  -58.1915 H         1 UNK         0.0848 
     89 H89        23.2234  -49.1575  -58.4844 H         1 UNK         0.0848 
     90 H90        23.2660  -47.7742  -59.5776 H         1 UNK         0.0848 
     91 H91        25.9885  -48.6157  -57.3532 H         1 UNK         0.3144 
     92 H92        27.6488  -49.0088  -60.1921 H         1 UNK         0.0727 
     93 H93        28.8682  -46.7063  -58.5886 H         1 UNK         0.0790 
     94 H94        28.6055  -46.7258  -60.3249 H         1 UNK         0.0790 
     95 H95        29.7634  -47.8321  -59.6035 H         1 UNK         0.0790 
     96 H96        28.4954  -48.8162  -57.3626 H         1 UNK         0.3215 
     97 H97        27.3931  -52.1761  -56.6906 H         1 UNK         0.0863 
     98 H98        29.7470  -52.2346  -55.7774 H         1 UNK         0.0808 
     99 H99        30.1766  -50.9239  -56.8783 H         1 UNK         0.0808 
    100 H100       29.6736  -52.4765  -57.5162 H         1 UNK         0.0808 
    101 H101       28.5028  -50.3297  -54.8973 H         1 UNK         0.3118 
    102 H102       25.4005  -48.8244  -53.8516 H         1 UNK         0.0546 
    103 H103       27.3439  -50.8553  -52.6212 H         1 UNK         0.0828 
    104 H104       25.6077  -51.0726  -52.7924 H         1 UNK         0.0828 
    105 H105       26.2288  -49.8161  -51.7355 H         1 UNK         0.0828 
    106 H106       28.2379  -48.6308  -53.1653 H         1 UNK         0.3005 
    107 H107       28.7051  -45.4718  -54.7120 H         1 UNK         0.1257 
    108 H108       27.8054  -44.8329  -52.5669 H         1 UNK         0.0775 
    109 H109       28.2003  -46.3517  -51.8265 H         1 UNK         0.0775 
    110 H110       29.0018  -42.8330  -52.2117 H         1 UNK         0.0840 
    111 H111       30.5781  -42.6307  -51.4946 H         1 UNK         0.0840 
    112 H112       30.5419  -47.0410  -53.3550 H         1 UNK         0.2987 
    113 H113       31.4155  -49.4476  -55.7763 H         1 UNK         0.0785 
    114 H114       32.5799  -47.5201  -56.7507 H         1 UNK         0.0798 
    115 H115       33.6621  -48.3501  -55.6443 H         1 UNK         0.0798 
    116 H116       32.8786  -46.8392  -55.1653 H         1 UNK         0.0798 
    117 H117       32.6757  -48.7022  -53.3553 H         1 UNK         0.3079 
    118 H118       30.8329  -49.7638  -51.0007 H         1 UNK         0.0794 
    119 H119       31.6772  -52.0476  -50.4014 H         1 UNK         0.0786 
    120 H120       31.9825  -52.3780  -52.1067 H         1 UNK         0.0786 
    121 H121       30.3433  -52.1103  -51.5403 H         1 UNK         0.0786 
    122 H122       32.8750  -49.0390  -50.6351 H         1 UNK         0.3032 
    123 H123       35.0425  -48.9195  -50.3816 H         1 UNK         0.1094 
    124 H124       36.8088  -50.7780  -52.0661 H         1 UNK         0.0794 
    125 H125       37.3348  -49.7758  -50.7151 H         1 UNK         0.0794 
    126 H126       36.2399  -51.1211  -50.4379 H         1 UNK         0.0794 
    127 H127       36.4689  -48.4982  -52.8697 H         1 UNK         0.3016 
@<TRIPOS>BOND
     1    1    2 1    
     2    1   67 1    
     3    1   68 1    
     4    1   69 1    
     5    2    3 2    
     6    2    4 am   BACKBONE|DICT|INTERRES
     7    4    5 1    
     8    4   70 1    
     9    5    6 1    
    10    5   65 1    
    11    5   71 1    
    12    6    7 1    
    13    6   72 1    
    14    6   73 1    
    15    7    8 1    
    16    8    9 1    
    17    8   74 1    
    18    8   75 1    
    19    9   10 ar   
    20    9   14 ar   
    21   10   11 ar   
    22   10   76 1    
    23   11   12 ar   
    24   11   48 1    
    25   12   13 ar   
    26   12   77 1    
    27   13   14 ar   
    28   13   15 1    
    29   14   78 1    
    30   15   16 1    
    31   15   79 1    
    32   15   80 1    
    33   16   17 1    
    34   17   18 1    
    35   17   81 1    
    36   17   82 1    
    37   18   19 1    
    38   18   22 1    
    39   18   83 1    
    40   19   20 am   BACKBONE|DICT|INTERRES
    41   19   21 2    
    42   20   84 1    
    43   20   85 1    
    44   22   23 am   BACKBONE|DICT|INTERRES
    45   22   86 1    
    46   23   24 2    
    47   23   25 1    
    48   25   26 1    
    49   25   27 1    
    50   25   87 1    
    51   26   88 1    
    52   26   89 1    
    53   26   90 1    
    54   27   28 am   BACKBONE|DICT|INTERRES
    55   27   91 1    
    56   28   29 2    
    57   28   30 1    
    58   30   31 1    
    59   30   32 1    
    60   30   92 1    
    61   31   93 1    
    62   31   94 1    
    63   31   95 1    
    64   32   33 am   BACKBONE|DICT|INTERRES
    65   32   96 1    
    66   33   34 2    
    67   33   35 1    
    68   35   36 1    
    69   35   37 1    
    70   35   97 1    
    71   36   98 1    
    72   36   99 1    
    73   36  100 1    
    74   37   38 am   BACKBONE|DICT|INTERRES
    75   37  101 1    
    76   38   39 2    
    77   38   40 1    
    78   40   41 1    
    79   40   42 1    
    80   40  102 1    
    81   41  103 1    
    82   41  104 1    
    83   41  105 1    
    84   42   43 am   BACKBONE|DICT|INTERRES
    85   42  106 1    
    86   43   44 2    
    87   43   45 1    
    88   45   46 1    
    89   45   49 1    
    90   45  107 1    
    91   46   47 1    
    92   46  108 1    
    93   46  109 1    
    94   47   48 1    
    95   48  110 1    
    96   48  111 1    
    97   49   50 am   BACKBONE|DICT|INTERRES
    98   49  112 1    
    99   50   51 2    
   100   50   52 1    
   101   52   53 1    
   102   52   54 1    
   103   52  113 1    
   104   53  114 1    
   105   53  115 1    
   106   53  116 1    
   107   54   55 am   BACKBONE|DICT|INTERRES
   108   54  117 1    
   109   55   56 2    
   110   55   57 1    
   111   57   58 1    
   112   57   59 1    
   113   57  118 1    
   114   58  119 1    
   115   58  120 1    
   116   58  121 1    
   117   59   60 am   BACKBONE|DICT|INTERRES
   118   59  122 1    
   119   60   61 2    
   120   60   62 1    
   121   62   63 1    
   122   62   64 1    
   123   62  123 1    
   124   63  124 1    
   125   63  125 1    
   126   63  126 1    
   127   64   65 am   BACKBONE|DICT|INTERRES
   128   64  127 1    
   129   65   66 2    
@<TRIPOS>SUBSTRUCTURE
     1 UNK         1 GROUP             0       ****    0 ROOT    
