@<TRIPOS>MOLECULE
3R134
127   129    1
SMALL
USER_CHARGES


@<TRIPOS>ATOM
      1 CA         34.1632  -44.0356  -47.7809 C.3       0 UNK        -0.1968 
      2 C          34.3416  -44.4093  -49.2454 C.2       0 UNK         0.4852 
      3 O          35.4732  -44.6057  -49.6923 O.2       0 UNK        -0.5359 
      4 N          33.2356  -44.4992  -49.9949 N.am      1 UNK        -0.4300 
      5 CA         33.2077  -44.8921  -51.4078 C.3       1 UNK         0.0863 
      6 C6         31.8596  -44.5335  -52.0813 C.3       11 UNK        -0.0953 
      7 S7         31.5068  -42.7452  -52.0149 S.3       11 UNK        -0.2369 
      8 C8         32.4005  -42.1357  -53.4787 C.3       11 UNK         0.0226 
      9 C9         31.6418  -42.4133  -54.7674 C.ar      11 UNK        -0.0699 
     10 C10        31.9682  -43.5182  -55.5601 C.ar      11 UNK        -0.0804 
     11 C11        31.2749  -43.7725  -56.7507 C.ar      11 UNK        -0.0871 
     12 C12        30.2720  -42.8835  -57.1516 C.ar      11 UNK        -0.1008 
     13 C13        29.9371  -41.7736  -56.3707 C.ar      11 UNK        -0.0735 
     14 C14        30.6242  -41.5472  -55.1758 C.ar      11 UNK        -0.0945 
     15 C15        28.8499  -40.8069  -56.8254 C.3       11 UNK         0.0169 
     16 S16        27.2290  -41.6104  -57.0480 S.3       11 UNK        -0.2669 
     17 C17        26.8793  -42.2363  -55.3673 C.3       11 UNK        -0.0850 
     18 CA         27.1068  -43.7687  -55.2174 C.3       10 UNK         0.0855 
     19 C          26.9001  -44.2421  -53.7490 C.2       10 UNK         0.5543 
     20 N          26.3323  -45.4161  -53.5013 N.am      10 UNK        -0.7343 
     21 O          27.2569  -43.5353  -52.8102 O.2       10 UNK        -0.5027 
     22 N          26.2968  -44.5356  -56.1814 N.am      10 UNK        -0.4495 
     23 C          26.7755  -45.2100  -57.2313 C.2       10 UNK         0.4903 
     24 O          27.9676  -45.2943  -57.5238 O.2       10 UNK        -0.4860 
     25 CA         25.7406  -45.8714  -58.1439 C.3       9 UNK         0.0227 
     26 CB         25.5421  -45.0337  -59.4228 C.3       9 UNK        -0.1964 
     27 N          26.1932  -47.2227  -58.4651 N.am      9 UNK        -0.4231 
     28 C          25.4321  -48.1868  -58.9995 C.2       9 UNK         0.5014 
     29 O          24.2625  -48.0266  -59.3519 O.2       9 UNK        -0.5270 
     30 CA         26.0678  -49.5785  -59.1275 C.3       8 UNK         0.0284 
     31 CB         27.1297  -49.6168  -60.2403 C.3       8 UNK        -0.1977 
     32 N          26.6508  -49.9868  -57.8490 N.am      8 UNK        -0.4342 
     33 C          25.9515  -50.5571  -56.8563 C.2       8 UNK         0.5039 
     34 O          24.7761  -50.9098  -56.9652 O.2       8 UNK        -0.5547 
     35 CA         26.6661  -50.7781  -55.5096 C.3       7 UNK         0.0281 
     36 CB         27.2021  -52.2159  -55.4205 C.3       7 UNK        -0.1963 
     37 N          27.7565  -49.8334  -55.2545 N.am      7 UNK        -0.4444 
     38 C          27.5945  -48.5133  -55.0774 C.2       7 UNK         0.5104 
     39 O          26.4978  -47.9538  -55.0381 O.2       7 UNK        -0.5100 
     40 CA         28.8708  -47.6619  -54.9734 C.3       6 UNK         0.0396 
     41 CB         29.3164  -47.5201  -53.5112 C.3       6 UNK        -0.1801 
     42 N          29.9882  -48.1583  -55.7813 N.am      6 UNK        -0.4747 
     43 C          29.9742  -48.3189  -57.1150 C.2       6 UNK         0.5012 
     44 O          28.9670  -48.1746  -57.8087 O.2       6 UNK        -0.5003 
     45 CA         31.2845  -48.7783  -57.7827 C.3       5 UNK         0.0782 
     46 C46        32.2773  -47.6349  -58.1420 C.3       11 UNK        -0.0868 
     47 S47        32.5395  -46.3269  -56.8901 S.3       11 UNK        -0.2515 
     48 C48        31.5692  -44.9751  -57.6482 C.3       11 UNK         0.0199 
     49 N          31.9029  -49.8448  -56.9914 N.am      5 UNK        -0.4607 
     50 C          31.7115  -51.1497  -57.2389 C.2       4 UNK         0.5031 
     51 O          31.0651  -51.5770  -58.1960 O.2       4 UNK        -0.5119 
     52 CA         32.3333  -52.1654  -56.2648 C.3       4 UNK         0.0263 
     53 CB         33.7380  -52.5712  -56.7396 C.3       4 UNK        -0.1967 
     54 N          32.4079  -51.6992  -54.8805 N.am      4 UNK        -0.4237 
     55 C          31.3574  -51.3696  -54.1159 C.2       3 UNK         0.4908 
     56 O          30.1856  -51.4175  -54.4891 O.2       3 UNK        -0.5102 
     57 CA         31.6793  -50.8520  -52.7043 C.3       3 UNK         0.0241 
     58 CB         31.8014  -52.0247  -51.7181 C.3       3 UNK        -0.1971 
     59 N          32.8867  -50.0188  -52.6288 N.am      3 UNK        -0.4139 
     60 C          33.1175  -48.9208  -53.3627 C.2       2 UNK         0.5016 
     61 O          32.3696  -48.5168  -54.2553 O.2       2 UNK        -0.5319 
     62 CA         34.4125  -48.1498  -53.0700 C.3       2 UNK         0.0286 
     63 CB         35.3392  -48.1664  -54.2972 C.3       2 UNK        -0.1963 
     64 N          34.1174  -46.7639  -52.7037 N.am      2 UNK        -0.4790 
     65 C          33.5069  -46.3959  -51.5689 C.2       1 UNK         0.5024 
     66 O          33.1679  -47.1897  -50.6866 O.2       1 UNK        -0.4888 
     67 H67        34.5502  -44.8289  -47.1419 H         1 UNK         0.0892 
     68 H68        34.7103  -43.1200  -47.5578 H         1 UNK         0.0892 
     69 H69        33.1159  -43.8751  -47.5254 H         1 UNK         0.0892 
     70 H70        32.3329  -44.3382  -49.5723 H         1 UNK         0.3107 
     71 H71        34.0022  -44.3423  -51.9168 H         1 UNK         0.0773 
     72 H72        31.0367  -45.0551  -51.5887 H         1 UNK         0.0680 
     73 H73        31.8390  -44.8636  -53.1205 H         1 UNK         0.0680 
     74 H74        33.3983  -42.5750  -53.5144 H         1 UNK         0.0650 
     75 H75        32.5494  -41.0603  -53.3712 H         1 UNK         0.0650 
     76 H76        32.7628  -44.1762  -55.2405 H         1 UNK         0.1397 
     77 H77        29.7312  -43.0653  -58.0710 H         1 UNK         0.1363 
     78 H78        30.3748  -40.6916  -54.5630 H         1 UNK         0.1355 
     79 H79        28.7403  -39.9816  -56.1200 H         1 UNK         0.0707 
     80 H80        29.1518  -40.3602  -57.7736 H         1 UNK         0.0707 
     81 H81        27.4961  -41.6854  -54.6546 H         1 UNK         0.1034 
     82 H82        25.8462  -41.9850  -55.1217 H         1 UNK         0.1034 
     83 H83        28.1643  -43.9591  -55.4074 H         1 UNK         0.0482 
     84 H84        26.1933  -45.6955  -52.5438 H         1 UNK         0.3460 
     85 H85        26.1202  -46.0666  -54.2478 H         1 UNK         0.3460 
     86 H86        25.3016  -44.5323  -56.0099 H         1 UNK         0.2989 
     87 H87        24.7911  -45.9436  -57.6092 H         1 UNK         0.0559 
     88 H88        25.2609  -44.0087  -59.1771 H         1 UNK         0.0848 
     89 H89        24.7533  -45.4404  -60.0551 H         1 UNK         0.0848 
     90 H90        26.4566  -44.9867  -60.0154 H         1 UNK         0.0848 
     91 H91        27.1561  -47.4277  -58.2026 H         1 UNK         0.3144 
     92 H92        25.2815  -50.2848  -59.4033 H         1 UNK         0.0727 
     93 H93        27.5768  -50.6073  -60.3261 H         1 UNK         0.0790 
     94 H94        27.9341  -48.9010  -60.0730 H         1 UNK         0.0790 
     95 H95        26.6832  -49.3783  -61.2064 H         1 UNK         0.0790 
     96 H96        27.5936  -49.6635  -57.6606 H         1 UNK         0.3215 
     97 H97        25.9209  -50.6429  -54.7227 H         1 UNK         0.0863 
     98 H98        27.6061  -52.4270  -54.4303 H         1 UNK         0.0808 
     99 H99        27.9925  -52.3970  -56.1503 H         1 UNK         0.0808 
    100 H100       26.4103  -52.9427  -55.6072 H         1 UNK         0.0808 
    101 H101       28.6953  -50.2199  -55.2118 H         1 UNK         0.3118 
    102 H102       28.6320  -46.6640  -55.3420 H         1 UNK         0.0546 
    103 H103       28.5237  -47.0926  -52.8972 H         1 UNK         0.0828 
    104 H104       30.1835  -46.8656  -53.4235 H         1 UNK         0.0828 
    105 H105       29.5778  -48.4839  -53.0784 H         1 UNK         0.0828 
    106 H106       30.8697  -48.2931  -55.2877 H         1 UNK         0.3005 
    107 H107       30.9799  -49.1989  -58.7444 H         1 UNK         0.1257 
    108 H108       33.2518  -48.0605  -58.3862 H         1 UNK         0.0775 
    109 H109       31.9456  -47.1600  -59.0669 H         1 UNK         0.0775 
    110 H110       32.0918  -44.6263  -58.5398 H         1 UNK         0.0840 
    111 H111       30.6187  -45.3906  -57.9868 H         1 UNK         0.0840 
    112 H112       32.3907  -49.5577  -56.1511 H         1 UNK         0.2987 
    113 H113       31.6985  -53.0540  -56.2750 H         1 UNK         0.0785 
    114 H114       34.1554  -53.3628  -56.1170 H         1 UNK         0.0798 
    115 H115       34.4298  -51.7279  -56.7224 H         1 UNK         0.0798 
    116 H116       33.7099  -52.9485  -57.7630 H         1 UNK         0.0798 
    117 H117       33.3301  -51.6128  -54.4798 H         1 UNK         0.3079 
    118 H118       30.8399  -50.2344  -52.3843 H         1 UNK         0.0794 
    119 H119       30.9075  -52.6499  -51.7431 H         1 UNK         0.0786 
    120 H120       31.9171  -51.6716  -50.6932 H         1 UNK         0.0786 
    121 H121       32.6532  -52.6646  -51.9520 H         1 UNK         0.0786 
    122 H122       33.5548  -50.2685  -51.9136 H         1 UNK         0.3032 
    123 H123       34.9358  -48.6221  -52.2355 H         1 UNK         0.1094 
    124 H124       34.8756  -47.6881  -55.1614 H         1 UNK         0.0794 
    125 H125       36.2785  -47.6521  -54.0930 H         1 UNK         0.0794 
    126 H126       35.5867  -49.1887  -54.5861 H         1 UNK         0.0794 
    127 H127       34.3278  -46.0634  -53.3995 H         1 UNK         0.3016 
@<TRIPOS>BOND
     1    1    2 1    
     2    1   67 1    
     3    1   68 1    
     4    1   69 1    
     5    2    3 2    
     6    2    4 am   BACKBONE|DICT|INTERRES
     7    4    5 1    
     8    4   70 1    
     9    5    6 1    
    10    5   65 1    
    11    5   71 1    
    12    6    7 1    
    13    6   72 1    
    14    6   73 1    
    15    7    8 1    
    16    8    9 1    
    17    8   74 1    
    18    8   75 1    
    19    9   10 ar   
    20    9   14 ar   
    21   10   11 ar   
    22   10   76 1    
    23   11   12 ar   
    24   11   48 1    
    25   12   13 ar   
    26   12   77 1    
    27   13   14 ar   
    28   13   15 1    
    29   14   78 1    
    30   15   16 1    
    31   15   79 1    
    32   15   80 1    
    33   16   17 1    
    34   17   18 1    
    35   17   81 1    
    36   17   82 1    
    37   18   19 1    
    38   18   22 1    
    39   18   83 1    
    40   19   20 am   BACKBONE|DICT|INTERRES
    41   19   21 2    
    42   20   84 1    
    43   20   85 1    
    44   22   23 am   BACKBONE|DICT|INTERRES
    45   22   86 1    
    46   23   24 2    
    47   23   25 1    
    48   25   26 1    
    49   25   27 1    
    50   25   87 1    
    51   26   88 1    
    52   26   89 1    
    53   26   90 1    
    54   27   28 am   BACKBONE|DICT|INTERRES
    55   27   91 1    
    56   28   29 2    
    57   28   30 1    
    58   30   31 1    
    59   30   32 1    
    60   30   92 1    
    61   31   93 1    
    62   31   94 1    
    63   31   95 1    
    64   32   33 am   BACKBONE|DICT|INTERRES
    65   32   96 1    
    66   33   34 2    
    67   33   35 1    
    68   35   36 1    
    69   35   37 1    
    70   35   97 1    
    71   36   98 1    
    72   36   99 1    
    73   36  100 1    
    74   37   38 am   BACKBONE|DICT|INTERRES
    75   37  101 1    
    76   38   39 2    
    77   38   40 1    
    78   40   41 1    
    79   40   42 1    
    80   40  102 1    
    81   41  103 1    
    82   41  104 1    
    83   41  105 1    
    84   42   43 am   BACKBONE|DICT|INTERRES
    85   42  106 1    
    86   43   44 2    
    87   43   45 1    
    88   45   46 1    
    89   45   49 1    
    90   45  107 1    
    91   46   47 1    
    92   46  108 1    
    93   46  109 1    
    94   47   48 1    
    95   48  110 1    
    96   48  111 1    
    97   49   50 am   BACKBONE|DICT|INTERRES
    98   49  112 1    
    99   50   51 2    
   100   50   52 1    
   101   52   53 1    
   102   52   54 1    
   103   52  113 1    
   104   53  114 1    
   105   53  115 1    
   106   53  116 1    
   107   54   55 am   BACKBONE|DICT|INTERRES
   108   54  117 1    
   109   55   56 2    
   110   55   57 1    
   111   57   58 1    
   112   57   59 1    
   113   57  118 1    
   114   58  119 1    
   115   58  120 1    
   116   58  121 1    
   117   59   60 am   BACKBONE|DICT|INTERRES
   118   59  122 1    
   119   60   61 2    
   120   60   62 1    
   121   62   63 1    
   122   62   64 1    
   123   62  123 1    
   124   63  124 1    
   125   63  125 1    
   126   63  126 1    
   127   64   65 am   BACKBONE|DICT|INTERRES
   128   64  127 1    
   129   65   66 2    
@<TRIPOS>SUBSTRUCTURE
     1 UNK         1 GROUP             0       ****    0 ROOT    
