@<TRIPOS>MOLECULE
3R134
127   129    1
SMALL
USER_CHARGES


@<TRIPOS>ATOM
      1 CA         33.6875  -46.2959  -48.7821 C.3       0 UNK        -0.1968 
      2 C          33.8235  -46.3727  -50.2950 C.2       0 UNK         0.4852 
      3 O          33.7661  -47.4667  -50.8556 O.2       0 UNK        -0.5359 
      4 N          33.9879  -45.2205  -50.9605 N.am      1 UNK        -0.4300 
      5 CA         34.1478  -45.0872  -52.4158 C.3       1 UNK         0.0863 
      6 C6         34.4307  -43.6129  -52.8073 C.3       11 UNK        -0.0953 
      7 S7         35.4494  -43.4562  -54.3091 S.3       11 UNK        -0.2369 
      8 C8         34.4124  -42.3867  -55.3580 C.3       11 UNK         0.0226 
      9 C9         33.2556  -43.1478  -55.9883 C.ar      11 UNK        -0.0699 
     10 C10        33.5153  -44.1232  -56.9546 C.ar      11 UNK        -0.0804 
     11 C11        32.4689  -44.8304  -57.5500 C.ar      11 UNK        -0.0871 
     12 C12        31.1529  -44.5480  -57.1788 C.ar      11 UNK        -0.1008 
     13 C13        30.8733  -43.5610  -56.2290 C.ar      11 UNK        -0.0735 
     14 C14        31.9320  -42.8682  -55.6303 C.ar      11 UNK        -0.0945 
     15 C15        29.4331  -43.2630  -55.8286 C.3       11 UNK         0.0169 
     16 S16        28.3609  -42.9088  -57.2568 S.3       11 UNK        -0.2669 
     17 C17        26.8855  -42.2017  -56.4447 C.3       11 UNK        -0.0850 
     18 CA         26.2334  -43.0875  -55.3468 C.3       10 UNK         0.0855 
     19 C          25.0480  -42.3274  -54.6803 C.2       10 UNK         0.5543 
     20 N          23.8028  -42.7588  -54.8416 N.am      10 UNK        -0.7343 
     21 O          25.2671  -41.3264  -54.0029 O.2       10 UNK        -0.5027 
     22 N          25.9035  -44.4353  -55.8419 N.am      10 UNK        -0.4495 
     23 C          25.6071  -45.4880  -55.0710 C.2       10 UNK         0.4903 
     24 O          25.6495  -45.4629  -53.8410 O.2       10 UNK        -0.4860 
     25 CA         25.1744  -46.7907  -55.7702 C.3       9 UNK         0.0227 
     26 CB         23.6860  -46.7357  -56.1655 C.3       9 UNK        -0.1964 
     27 N          26.0130  -47.2150  -56.9000 N.am      9 UNK        -0.4231 
     28 C          26.2085  -46.6160  -58.0862 C.2       9 UNK         0.5014 
     29 O          25.6937  -45.5441  -58.4080 O.2       9 UNK        -0.5270 
     30 CA         27.1503  -47.3150  -59.0860 C.3       8 UNK         0.0284 
     31 CB         28.5403  -46.6649  -59.0470 C.3       8 UNK        -0.1977 
     32 N          27.3016  -48.7511  -58.8463 N.am      8 UNK        -0.4342 
     33 C          26.3549  -49.6741  -59.0583 C.2       8 UNK         0.5039 
     34 O          25.2590  -49.4303  -59.5639 O.2       8 UNK        -0.5547 
     35 CA         26.6801  -51.1110  -58.6123 C.3       7 UNK         0.0281 
     36 CB         27.1589  -51.9502  -59.8078 C.3       7 UNK        -0.1963 
     37 N          27.6768  -51.1945  -57.5373 N.am      7 UNK        -0.4444 
     38 C          27.5304  -50.7176  -56.2943 C.2       7 UNK         0.5104 
     39 O          26.5510  -50.0713  -55.9224 O.2       7 UNK        -0.5100 
     40 CA         28.6780  -50.9841  -55.3072 C.3       6 UNK         0.0396 
     41 CB         28.9196  -52.4920  -55.0939 C.3       6 UNK        -0.1801 
     42 N          29.9193  -50.2762  -55.6392 N.am      6 UNK        -0.4747 
     43 C          30.7296  -50.4426  -56.6951 C.2       6 UNK         0.5012 
     44 O          30.5062  -51.2353  -57.6114 O.2       6 UNK        -0.5003 
     45 CA         32.0176  -49.5966  -56.7314 C.3       5 UNK         0.0782 
     46 C46        31.7701  -48.2106  -57.3701 C.3       11 UNK        -0.0868 
     47 S47        33.3458  -47.4348  -57.8530 S.3       11 UNK        -0.2515 
     48 C48        32.7683  -45.8835  -58.6047 C.3       11 UNK         0.0199 
     49 N          32.6326  -49.4933  -55.4031 N.am      5 UNK        -0.4607 
     50 C          33.3281  -50.4812  -54.8233 C.2       4 UNK         0.5031 
     51 O          33.5828  -51.5537  -55.3725 O.2       4 UNK        -0.5119 
     52 CA         33.8108  -50.2441  -53.3823 C.3       4 UNK         0.0263 
     53 CB         35.1083  -49.4198  -53.3689 C.3       4 UNK        -0.1967 
     54 N          32.8013  -49.5898  -52.5480 N.am      4 UNK        -0.4237 
     55 C          31.6232  -50.1333  -52.2080 C.2       3 UNK         0.4908 
     56 O          31.2887  -51.2829  -52.4935 O.2       3 UNK        -0.5102 
     57 CA         30.6400  -49.2423  -51.4318 C.3       3 UNK         0.0241 
     58 CB         30.8763  -49.3580  -49.9171 C.3       3 UNK        -0.1971 
     59 N          30.7029  -47.8356  -51.8358 N.am      3 UNK        -0.4139 
     60 C          30.3011  -47.3668  -53.0257 C.2       2 UNK         0.5016 
     61 O          29.8325  -48.0691  -53.9193 O.2       2 UNK        -0.5319 
     62 CA         30.4773  -45.8619  -53.2725 C.3       2 UNK         0.0286 
     63 CB         29.2978  -45.0764  -52.6765 C.3       2 UNK        -0.1963 
     64 N          31.7332  -45.3399  -52.7332 N.am      2 UNK        -0.4790 
     65 C          32.9490  -45.6731  -53.1927 C.2       1 UNK         0.5024 
     66 O          33.1377  -46.4518  -54.1281 O.2       1 UNK        -0.4888 
     67 H67        32.7223  -46.6949  -48.4713 H         1 UNK         0.0892 
     68 H68        34.4692  -46.8878  -48.3070 H         1 UNK         0.0892 
     69 H69        33.7666  -45.2727  -48.4154 H         1 UNK         0.0892 
     70 H70        34.0253  -44.3575  -50.4369 H         1 UNK         0.3107 
     71 H71        35.0213  -45.6897  -52.6757 H         1 UNK         0.0773 
     72 H72        33.5075  -43.0384  -52.9052 H         1 UNK         0.0680 
     73 H73        34.9971  -43.1177  -52.0170 H         1 UNK         0.0680 
     74 H74        35.0342  -41.9713  -56.1523 H         1 UNK         0.0650 
     75 H75        34.0560  -41.5359  -54.7751 H         1 UNK         0.0650 
     76 H76        34.5370  -44.3404  -57.2352 H         1 UNK         0.1397 
     77 H77        30.3395  -45.0851  -57.6388 H         1 UNK         0.1363 
     78 H78        31.7270  -42.1105  -54.8866 H         1 UNK         0.1355 
     79 H79        29.0269  -44.1292  -55.3089 H         1 UNK         0.0707 
     80 H80        29.3938  -42.4235  -55.1327 H         1 UNK         0.0707 
     81 H81        27.1749  -41.2346  -56.0281 H         1 UNK         0.1034 
     82 H82        26.1554  -41.9809  -57.2256 H         1 UNK         0.1034 
     83 H83        26.9655  -43.2185  -54.5487 H         1 UNK         0.0482 
     84 H84        23.6156  -43.5760  -55.3992 H         1 UNK         0.3460 
     85 H85        23.0450  -42.2594  -54.4033 H         1 UNK         0.3460 
     86 H86        25.8481  -44.5573  -56.8505 H         1 UNK         0.2989 
     87 H87        25.2794  -47.5849  -55.0292 H         1 UNK         0.0559 
     88 H88        23.4881  -45.9692  -56.9153 H         1 UNK         0.0848 
     89 H89        23.0610  -46.5119  -55.2999 H         1 UNK         0.0848 
     90 H90        23.3497  -47.6911  -56.5684 H         1 UNK         0.0848 
     91 H91        26.4733  -48.1060  -56.7504 H         1 UNK         0.3144 
     92 H92        26.7304  -47.1755  -60.0844 H         1 UNK         0.0727 
     93 H93        29.0195  -46.8257  -58.0814 H         1 UNK         0.0790 
     94 H94        28.4743  -45.5877  -59.2096 H         1 UNK         0.0790 
     95 H95        29.1928  -47.0694  -59.8210 H         1 UNK         0.0790 
     96 H96        28.1749  -49.0615  -58.4473 H         1 UNK         0.3215 
     97 H97        25.7528  -51.5477  -58.2352 H         1 UNK         0.0863 
     98 H98        27.2984  -52.9949  -59.5292 H         1 UNK         0.0808 
     99 H99        28.1035  -51.5799  -60.2083 H         1 UNK         0.0808 
    100 H100       26.4291  -51.9279  -60.6186 H         1 UNK         0.0808 
    101 H101       28.5711  -51.6207  -57.7624 H         1 UNK         0.3118 
    102 H102       28.3625  -50.5741  -54.3463 H         1 UNK         0.0546 
    103 H103       28.0010  -52.9927  -54.7857 H         1 UNK         0.0828 
    104 H104       29.6583  -52.6627  -54.3108 H         1 UNK         0.0828 
    105 H105       29.2732  -52.9909  -55.9962 H         1 UNK         0.0828 
    106 H106       30.1443  -49.5280  -54.9843 H         1 UNK         0.3005 
    107 H107       32.7095  -50.1404  -57.3798 H         1 UNK         0.1257 
    108 H108       31.2333  -47.5527  -56.6835 H         1 UNK         0.0775 
    109 H109       31.1573  -48.2998  -58.2693 H         1 UNK         0.0775 
    110 H110       33.5431  -45.5100  -59.2759 H         1 UNK         0.0840 
    111 H111       31.8939  -46.0736  -59.2291 H         1 UNK         0.0840 
    112 H112       32.5075  -48.6208  -54.9057 H         1 UNK         0.2987 
    113 H113       34.0238  -51.2194  -52.9396 H         1 UNK         0.0785 
    114 H114       34.9598  -48.4240  -53.7875 H         1 UNK         0.0798 
    115 H115       35.8868  -49.9082  -53.9563 H         1 UNK         0.0798 
    116 H116       35.4916  -49.3012  -52.3552 H         1 UNK         0.0798 
    117 H117       33.0368  -48.6718  -52.1781 H         1 UNK         0.3079 
    118 H118       29.6320  -49.6045  -51.6466 H         1 UNK         0.0794 
    119 H119       31.8710  -49.0129  -49.6335 H         1 UNK         0.0786 
    120 H120       30.7872  -50.3945  -49.5888 H         1 UNK         0.0786 
    121 H121       30.1449  -48.7773  -49.3548 H         1 UNK         0.0786 
    122 H122       31.1211  -47.1906  -51.1823 H         1 UNK         0.3032 
    123 H123       30.4928  -45.7150  -54.3540 H         1 UNK         0.1094 
    124 H124       29.3877  -44.0081  -52.8730 H         1 UNK         0.0794 
    125 H125       28.3529  -45.4076  -53.1096 H         1 UNK         0.0794 
    126 H126       29.2241  -45.2107  -51.5966 H         1 UNK         0.0794 
    127 H127       31.6704  -44.7066  -51.9493 H         1 UNK         0.3016 
@<TRIPOS>BOND
     1    1    2 1    
     2    1   67 1    
     3    1   68 1    
     4    1   69 1    
     5    2    3 2    
     6    2    4 am   BACKBONE|DICT|INTERRES
     7    4    5 1    
     8    4   70 1    
     9    5    6 1    
    10    5   65 1    
    11    5   71 1    
    12    6    7 1    
    13    6   72 1    
    14    6   73 1    
    15    7    8 1    
    16    8    9 1    
    17    8   74 1    
    18    8   75 1    
    19    9   10 ar   
    20    9   14 ar   
    21   10   11 ar   
    22   10   76 1    
    23   11   12 ar   
    24   11   48 1    
    25   12   13 ar   
    26   12   77 1    
    27   13   14 ar   
    28   13   15 1    
    29   14   78 1    
    30   15   16 1    
    31   15   79 1    
    32   15   80 1    
    33   16   17 1    
    34   17   18 1    
    35   17   81 1    
    36   17   82 1    
    37   18   19 1    
    38   18   22 1    
    39   18   83 1    
    40   19   20 am   BACKBONE|DICT|INTERRES
    41   19   21 2    
    42   20   84 1    
    43   20   85 1    
    44   22   23 am   BACKBONE|DICT|INTERRES
    45   22   86 1    
    46   23   24 2    
    47   23   25 1    
    48   25   26 1    
    49   25   27 1    
    50   25   87 1    
    51   26   88 1    
    52   26   89 1    
    53   26   90 1    
    54   27   28 am   BACKBONE|DICT|INTERRES
    55   27   91 1    
    56   28   29 2    
    57   28   30 1    
    58   30   31 1    
    59   30   32 1    
    60   30   92 1    
    61   31   93 1    
    62   31   94 1    
    63   31   95 1    
    64   32   33 am   BACKBONE|DICT|INTERRES
    65   32   96 1    
    66   33   34 2    
    67   33   35 1    
    68   35   36 1    
    69   35   37 1    
    70   35   97 1    
    71   36   98 1    
    72   36   99 1    
    73   36  100 1    
    74   37   38 am   BACKBONE|DICT|INTERRES
    75   37  101 1    
    76   38   39 2    
    77   38   40 1    
    78   40   41 1    
    79   40   42 1    
    80   40  102 1    
    81   41  103 1    
    82   41  104 1    
    83   41  105 1    
    84   42   43 am   BACKBONE|DICT|INTERRES
    85   42  106 1    
    86   43   44 2    
    87   43   45 1    
    88   45   46 1    
    89   45   49 1    
    90   45  107 1    
    91   46   47 1    
    92   46  108 1    
    93   46  109 1    
    94   47   48 1    
    95   48  110 1    
    96   48  111 1    
    97   49   50 am   BACKBONE|DICT|INTERRES
    98   49  112 1    
    99   50   51 2    
   100   50   52 1    
   101   52   53 1    
   102   52   54 1    
   103   52  113 1    
   104   53  114 1    
   105   53  115 1    
   106   53  116 1    
   107   54   55 am   BACKBONE|DICT|INTERRES
   108   54  117 1    
   109   55   56 2    
   110   55   57 1    
   111   57   58 1    
   112   57   59 1    
   113   57  118 1    
   114   58  119 1    
   115   58  120 1    
   116   58  121 1    
   117   59   60 am   BACKBONE|DICT|INTERRES
   118   59  122 1    
   119   60   61 2    
   120   60   62 1    
   121   62   63 1    
   122   62   64 1    
   123   62  123 1    
   124   63  124 1    
   125   63  125 1    
   126   63  126 1    
   127   64   65 am   BACKBONE|DICT|INTERRES
   128   64  127 1    
   129   65   66 2    
@<TRIPOS>SUBSTRUCTURE
     1 UNK         1 GROUP             0       ****    0 ROOT    
