@<TRIPOS>MOLECULE
3R134
127   129    1
SMALL
USER_CHARGES


@<TRIPOS>ATOM
      1 CA         30.5541  -45.5211  -55.1134 C.3       0 UNK        -0.1968 
      2 C          31.8397  -46.0168  -54.4814 C.2       0 UNK         0.4852 
      3 O          32.0399  -47.2245  -54.3856 O.2       0 UNK        -0.5359 
      4 N          32.7421  -45.1033  -54.1002 N.am      1 UNK        -0.4300 
      5 CA         34.0676  -45.4073  -53.5389 C.3       1 UNK         0.0863 
      6 C6         34.7788  -44.1249  -53.0435 C.3       11 UNK        -0.0953 
      7 S7         34.0070  -43.4590  -51.5319 S.3       11 UNK        -0.2369 
      8 C8         33.2584  -41.8968  -52.1047 C.3       11 UNK         0.0226 
      9 C9         31.8992  -42.0688  -52.7781 C.ar      11 UNK        -0.0699 
     10 C10        30.9132  -42.8829  -52.2091 C.ar      11 UNK        -0.0804 
     11 C11        29.6485  -42.9985  -52.7980 C.ar      11 UNK        -0.0871 
     12 C12        29.3611  -42.2460  -53.9412 C.ar      11 UNK        -0.1008 
     13 C13        30.3297  -41.4159  -54.5175 C.ar      11 UNK        -0.0735 
     14 C14        31.6000  -41.3448  -53.9364 C.ar      11 UNK        -0.0945 
     15 C15        29.9968  -40.5258  -55.7134 C.3       11 UNK         0.0169 
     16 S16        28.9921  -41.3398  -56.9991 S.3       11 UNK        -0.2669 
     17 C17        30.2335  -42.4010  -57.8094 C.3       11 UNK        -0.0850 
     18 CA         29.5838  -43.5818  -58.5791 C.3       10 UNK         0.0855 
     19 C          30.6463  -44.3530  -59.4211 C.2       10 UNK         0.5543 
     20 N          30.8170  -45.6621  -59.2737 N.am      10 UNK        -0.7343 
     21 O          31.3339  -43.7437  -60.2364 O.2       10 UNK        -0.5027 
     22 N          28.7761  -44.4287  -57.6870 N.am      10 UNK        -0.4495 
     23 C          27.7920  -45.2401  -58.0828 C.2       10 UNK         0.4903 
     24 O          27.3402  -45.2782  -59.2293 O.2       10 UNK        -0.4860 
     25 CA         27.2372  -46.1954  -57.0109 C.3       9 UNK         0.0227 
     26 CB         25.8408  -45.7522  -56.5488 C.3       9 UNK        -0.1964 
     27 N          27.1791  -47.5726  -57.5038 N.am      9 UNK        -0.4231 
     28 C          28.2190  -48.2732  -57.9753 C.2       9 UNK         0.5014 
     29 O          29.3869  -47.8775  -57.9367 O.2       9 UNK        -0.5270 
     30 CA         27.8836  -49.6416  -58.5969 C.3       8 UNK         0.0284 
     31 CB         29.0203  -50.1828  -59.4836 C.3       8 UNK        -0.1977 
     32 N          27.5612  -50.6348  -57.5736 N.am      8 UNK        -0.4342 
     33 C          26.4219  -50.6880  -56.8725 C.2       8 UNK         0.5039 
     34 O          25.4835  -49.9058  -57.0427 O.2       8 UNK        -0.5547 
     35 CA         26.2957  -51.7899  -55.8093 C.3       7 UNK         0.0281 
     36 CB         27.4720  -52.7897  -55.7845 C.3       7 UNK        -0.1963 
     37 N          26.1941  -51.1490  -54.5025 N.am      7 UNK        -0.4444 
     38 C          25.1577  -51.2526  -53.6605 C.2       7 UNK         0.5104 
     39 O          24.1531  -51.9267  -53.8933 O.2       7 UNK        -0.5100 
     40 CA         25.2526  -50.5085  -52.3121 C.3       6 UNK         0.0396 
     41 CB         25.3747  -51.5130  -51.1538 C.3       6 UNK        -0.1801 
     42 N          26.3768  -49.5723  -52.2397 N.am      6 UNK        -0.4747 
     43 C          26.3990  -48.3503  -52.7907 C.2       6 UNK         0.5012 
     44 O          25.4314  -47.8379  -53.3522 O.2       6 UNK        -0.5003 
     45 CA         27.7351  -47.5806  -52.7276 C.3       5 UNK         0.0782 
     46 C46        27.7061  -46.5259  -51.5934 C.3       11 UNK        -0.0868 
     47 S47        29.2103  -45.4934  -51.5897 S.3       11 UNK        -0.2515 
     48 C48        28.5679  -43.8971  -52.1993 C.3       11 UNK         0.0199 
     49 N          28.9061  -48.4655  -52.6207 N.am      5 UNK        -0.4607 
     50 C          29.3083  -49.3243  -53.5640 C.2       4 UNK         0.5031 
     51 O          28.6981  -49.5234  -54.6163 O.2       4 UNK        -0.5119 
     52 CA         30.5708  -50.1352  -53.2674 C.3       4 UNK         0.0263 
     53 CB         30.2195  -51.5276  -52.7149 C.3       4 UNK        -0.1967 
     54 N          31.3114  -50.2550  -54.5160 N.am      4 UNK        -0.4237 
     55 C          32.6419  -50.3320  -54.6230 C.2       3 UNK         0.4908 
     56 O          33.4011  -50.4901  -53.6653 O.2       3 UNK        -0.5102 
     57 CA         33.2395  -50.1690  -56.0266 C.3       3 UNK         0.0241 
     58 CB         32.2339  -50.3860  -57.1777 C.3       3 UNK        -0.1971 
     59 N          33.8049  -48.8252  -56.1174 N.am      3 UNK        -0.4139 
     60 C          34.9010  -48.4913  -56.8117 C.2       2 UNK         0.5016 
     61 O          35.5742  -49.3039  -57.4479 O.2       2 UNK        -0.5319 
     62 CA         35.3236  -47.0065  -56.8335 C.3       2 UNK         0.0286 
     63 CB         35.0225  -46.3865  -58.2087 C.3       2 UNK        -0.1963 
     64 N          34.6775  -46.1892  -55.8041 N.am      2 UNK        -0.4790 
     65 C          34.9809  -46.2100  -54.4980 C.2       1 UNK         0.5024 
     66 O          35.9251  -46.8513  -54.0355 O.2       1 UNK        -0.4888 
     67 H67        29.7080  -45.7514  -54.4701 H         1 UNK         0.0892 
     68 H68        30.5804  -44.4468  -55.2856 H         1 UNK         0.0892 
     69 H69        30.4089  -46.0277  -56.0668 H         1 UNK         0.0892 
     70 H70        32.5112  -44.1214  -54.1576 H         1 UNK         0.3107 
     71 H71        33.9039  -46.0598  -52.6782 H         1 UNK         0.0773 
     72 H72        35.8206  -44.3318  -52.7898 H         1 UNK         0.0680 
     73 H73        34.8052  -43.3654  -53.8269 H         1 UNK         0.0680 
     74 H74        33.9615  -41.3815  -52.7609 H         1 UNK         0.0650 
     75 H75        33.1228  -41.2488  -51.2379 H         1 UNK         0.0650 
     76 H76        31.1325  -43.4278  -51.3014 H         1 UNK         0.1397 
     77 H77        28.3729  -42.2942  -54.3777 H         1 UNK         0.1363 
     78 H78        32.3462  -40.6879  -54.3630 H         1 UNK         0.1355 
     79 H79        29.4459  -39.6590  -55.3463 H         1 UNK         0.0707 
     80 H80        30.9064  -40.1372  -56.1743 H         1 UNK         0.0707 
     81 H81        30.8104  -41.7692  -58.4878 H         1 UNK         0.1034 
     82 H82        30.9410  -42.7715  -57.0661 H         1 UNK         0.1034 
     83 H83        28.9022  -43.1466  -59.3126 H         1 UNK         0.0482 
     84 H84        30.2347  -46.2172  -58.6561 H         1 UNK         0.3460 
     85 H85        31.5072  -46.1238  -59.8426 H         1 UNK         0.3460 
     86 H86        29.0573  -44.4376  -56.7201 H         1 UNK         0.2989 
     87 H87        27.8995  -46.1915  -56.1444 H         1 UNK         0.0559 
     88 H88        25.8664  -44.7390  -56.1453 H         1 UNK         0.0848 
     89 H89        25.1236  -45.7582  -57.3706 H         1 UNK         0.0848 
     90 H90        25.4563  -46.4036  -55.7636 H         1 UNK         0.0848 
     91 H91        26.2735  -48.0300  -57.5081 H         1 UNK         0.3144 
     92 H92        27.0089  -49.5039  -59.2366 H         1 UNK         0.0727 
     93 H93        28.7223  -51.0982  -59.9952 H         1 UNK         0.0790 
     94 H94        29.9190  -50.3991  -58.9073 H         1 UNK         0.0790 
     95 H95        29.2935  -49.4579  -60.2517 H         1 UNK         0.0790 
     96 H96        28.2922  -51.2886  -57.3367 H         1 UNK         0.3215 
     97 H97        25.3841  -52.3440  -56.0425 H         1 UNK         0.0863 
     98 H98        27.3096  -53.5588  -55.0291 H         1 UNK         0.0808 
     99 H99        28.4216  -52.3048  -55.5552 H         1 UNK         0.0808 
    100 H100       27.5758  -53.3045  -56.7408 H         1 UNK         0.0808 
    101 H101       26.9501  -50.5110  -54.2762 H         1 UNK         0.3118 
    102 H102       24.3228  -49.9508  -52.1811 H         1 UNK         0.0546 
    103 H103       24.5306  -52.2040  -51.1445 H         1 UNK         0.0828 
    104 H104       25.3853  -51.0073  -50.1882 H         1 UNK         0.0828 
    105 H105       26.2833  -52.1114  -51.2314 H         1 UNK         0.0828 
    106 H106       27.2179  -49.9058  -51.7910 H         1 UNK         0.3005 
    107 H107       27.8167  -47.0530  -53.6801 H         1 UNK         0.1257 
    108 H108       27.6272  -47.0135  -50.6199 H         1 UNK         0.0775 
    109 H109       26.8269  -45.8842  -51.6798 H         1 UNK         0.0775 
    110 H110       27.7998  -44.0941  -52.9489 H         1 UNK         0.0840 
    111 H111       28.0775  -43.3712  -51.3792 H         1 UNK         0.0840 
    112 H112       29.4680  -48.3499  -51.7893 H         1 UNK         0.2987 
    113 H113       31.1759  -49.5901  -52.5391 H         1 UNK         0.0785 
    114 H114       29.6629  -51.4493  -51.7803 H         1 UNK         0.0798 
    115 H115       31.1183  -52.1087  -52.5083 H         1 UNK         0.0798 
    116 H116       29.6074  -52.0978  -53.4142 H         1 UNK         0.0798 
    117 H117       30.7575  -50.0628  -55.3411 H         1 UNK         0.3079 
    118 H118       34.0342  -50.9129  -56.1148 H         1 UNK         0.0794 
    119 H119       31.7358  -51.3528  -57.0935 H         1 UNK         0.0786 
    120 H120       32.7392  -50.3705  -58.1435 H         1 UNK         0.0786 
    121 H121       31.4679  -49.6095  -57.1999 H         1 UNK         0.0786 
    122 H122       33.3242  -48.1178  -55.5656 H         1 UNK         0.3032 
    123 H123       36.4037  -46.9774  -56.6716 H         1 UNK         0.1094 
    124 H124       35.3811  -45.3587  -58.2690 H         1 UNK         0.0794 
    125 H125       35.5143  -46.9456  -59.0061 H         1 UNK         0.0794 
    126 H126       33.9533  -46.3836  -58.4251 H         1 UNK         0.0794 
    127 H127       33.8882  -45.6324  -56.0972 H         1 UNK         0.3016 
@<TRIPOS>BOND
     1    1    2 1    
     2    1   67 1    
     3    1   68 1    
     4    1   69 1    
     5    2    3 2    
     6    2    4 am   BACKBONE|DICT|INTERRES
     7    4    5 1    
     8    4   70 1    
     9    5    6 1    
    10    5   65 1    
    11    5   71 1    
    12    6    7 1    
    13    6   72 1    
    14    6   73 1    
    15    7    8 1    
    16    8    9 1    
    17    8   74 1    
    18    8   75 1    
    19    9   10 ar   
    20    9   14 ar   
    21   10   11 ar   
    22   10   76 1    
    23   11   12 ar   
    24   11   48 1    
    25   12   13 ar   
    26   12   77 1    
    27   13   14 ar   
    28   13   15 1    
    29   14   78 1    
    30   15   16 1    
    31   15   79 1    
    32   15   80 1    
    33   16   17 1    
    34   17   18 1    
    35   17   81 1    
    36   17   82 1    
    37   18   19 1    
    38   18   22 1    
    39   18   83 1    
    40   19   20 am   BACKBONE|DICT|INTERRES
    41   19   21 2    
    42   20   84 1    
    43   20   85 1    
    44   22   23 am   BACKBONE|DICT|INTERRES
    45   22   86 1    
    46   23   24 2    
    47   23   25 1    
    48   25   26 1    
    49   25   27 1    
    50   25   87 1    
    51   26   88 1    
    52   26   89 1    
    53   26   90 1    
    54   27   28 am   BACKBONE|DICT|INTERRES
    55   27   91 1    
    56   28   29 2    
    57   28   30 1    
    58   30   31 1    
    59   30   32 1    
    60   30   92 1    
    61   31   93 1    
    62   31   94 1    
    63   31   95 1    
    64   32   33 am   BACKBONE|DICT|INTERRES
    65   32   96 1    
    66   33   34 2    
    67   33   35 1    
    68   35   36 1    
    69   35   37 1    
    70   35   97 1    
    71   36   98 1    
    72   36   99 1    
    73   36  100 1    
    74   37   38 am   BACKBONE|DICT|INTERRES
    75   37  101 1    
    76   38   39 2    
    77   38   40 1    
    78   40   41 1    
    79   40   42 1    
    80   40  102 1    
    81   41  103 1    
    82   41  104 1    
    83   41  105 1    
    84   42   43 am   BACKBONE|DICT|INTERRES
    85   42  106 1    
    86   43   44 2    
    87   43   45 1    
    88   45   46 1    
    89   45   49 1    
    90   45  107 1    
    91   46   47 1    
    92   46  108 1    
    93   46  109 1    
    94   47   48 1    
    95   48  110 1    
    96   48  111 1    
    97   49   50 am   BACKBONE|DICT|INTERRES
    98   49  112 1    
    99   50   51 2    
   100   50   52 1    
   101   52   53 1    
   102   52   54 1    
   103   52  113 1    
   104   53  114 1    
   105   53  115 1    
   106   53  116 1    
   107   54   55 am   BACKBONE|DICT|INTERRES
   108   54  117 1    
   109   55   56 2    
   110   55   57 1    
   111   57   58 1    
   112   57   59 1    
   113   57  118 1    
   114   58  119 1    
   115   58  120 1    
   116   58  121 1    
   117   59   60 am   BACKBONE|DICT|INTERRES
   118   59  122 1    
   119   60   61 2    
   120   60   62 1    
   121   62   63 1    
   122   62   64 1    
   123   62  123 1    
   124   63  124 1    
   125   63  125 1    
   126   63  126 1    
   127   64   65 am   BACKBONE|DICT|INTERRES
   128   64  127 1    
   129   65   66 2    
@<TRIPOS>SUBSTRUCTURE
     1 UNK         1 GROUP             0       ****    0 ROOT    
