@<TRIPOS>MOLECULE
3R134
127   129    1
SMALL
USER_CHARGES


@<TRIPOS>ATOM
      1 CA         32.7212  -50.2687  -58.6680 C.3       0 UNK        -0.1968 
      2 C          32.4991  -49.6032  -57.3192 C.2       0 UNK         0.4852 
      3 O          32.6285  -50.2595  -56.2845 O.2       0 UNK        -0.5359 
      4 N          32.1881  -48.2983  -57.3173 N.am      1 UNK        -0.4300 
      5 CA         31.8407  -47.5133  -56.1243 C.3       1 UNK         0.0863 
      6 C6         31.2573  -46.1264  -56.4834 C.3       11 UNK        -0.0953 
      7 S7         32.3924  -45.0175  -57.3874 S.3       11 UNK        -0.2369 
      8 C8         33.0569  -43.9638  -56.0524 C.3       11 UNK         0.0226 
      9 C9         31.9777  -43.1941  -55.2987 C.ar      11 UNK        -0.0699 
     10 C10        31.6736  -43.5219  -53.9721 C.ar      11 UNK        -0.0804 
     11 C11        30.6945  -42.8112  -53.2665 C.ar      11 UNK        -0.0871 
     12 C12        30.0326  -41.7549  -53.9002 C.ar      11 UNK        -0.1008 
     13 C13        30.3307  -41.4122  -55.2225 C.ar      11 UNK        -0.0735 
     14 C14        31.3025  -42.1379  -55.9175 C.ar      11 UNK        -0.0945 
     15 C15        29.6276  -40.2365  -55.8887 C.3       11 UNK         0.0169 
     16 S16        28.2609  -40.7637  -56.9711 S.3       11 UNK        -0.2669 
     17 C17        27.0687  -41.4489  -55.7684 C.3       11 UNK        -0.0850 
     18 CA         27.0774  -43.0033  -55.7258 C.3       10 UNK         0.0855 
     19 C          26.2522  -43.5619  -54.5300 C.2       10 UNK         0.5543 
     20 N          25.4924  -44.6385  -54.6925 N.am      10 UNK        -0.7343 
     21 O          26.3057  -43.0183  -53.4299 O.2       10 UNK        -0.5027 
     22 N          26.6648  -43.5833  -57.0155 N.am      10 UNK        -0.4495 
     23 C          27.4781  -44.1942  -57.8812 C.2       10 UNK         0.4903 
     24 O          28.6965  -44.3020  -57.7412 O.2       10 UNK        -0.4860 
     25 CA         26.8181  -44.7715  -59.1441 C.3       9 UNK         0.0227 
     26 CB         27.0881  -43.8684  -60.3588 C.3       9 UNK        -0.1964 
     27 N          27.3280  -46.1169  -59.4115 N.am      9 UNK        -0.4231 
     28 C          27.0425  -47.1860  -58.6577 C.2       9 UNK         0.5014 
     29 O          26.1928  -47.1771  -57.7629 O.2       9 UNK        -0.5270 
     30 CA         27.8235  -48.4789  -58.9433 C.3       8 UNK         0.0284 
     31 CB         29.2292  -48.2528  -59.5412 C.3       8 UNK        -0.1977 
     32 N          27.9194  -49.2292  -57.6953 N.am      8 UNK        -0.4342 
     33 C          27.9797  -50.5603  -57.5843 C.2       8 UNK         0.5039 
     34 O          28.0610  -51.3208  -58.5504 O.2       8 UNK        -0.5547 
     35 CA         27.9365  -51.1596  -56.1649 C.3       7 UNK         0.0281 
     36 CB         29.2970  -51.7755  -55.7987 C.3       7 UNK        -0.1963 
     37 N          27.5355  -50.1956  -55.1312 N.am      7 UNK        -0.4444 
     38 C          26.2753  -49.7650  -54.9556 C.2       7 UNK         0.5104 
     39 O          25.3286  -50.1733  -55.6293 O.2       7 UNK        -0.5100 
     40 CA         25.9940  -48.7223  -53.8532 C.3       6 UNK         0.0396 
     41 CB         25.1380  -49.3405  -52.7351 C.3       6 UNK        -0.1801 
     42 N          27.1865  -48.1235  -53.2509 N.am      6 UNK        -0.4747 
     43 C          28.0075  -47.2489  -53.8492 C.2       6 UNK         0.5012 
     44 O          27.8647  -46.8514  -55.0040 O.2       6 UNK        -0.5003 
     45 CA         29.2360  -46.7975  -53.0332 C.3       5 UNK         0.0782 
     46 C46        28.9214  -45.5212  -52.2177 C.3       11 UNK        -0.0868 
     47 S47        30.3996  -44.8838  -51.3583 S.3       11 UNK        -0.2515 
     48 C48        30.3780  -43.1135  -51.8020 C.3       11 UNK         0.0199 
     49 N          29.8189  -47.8654  -52.2028 N.am      5 UNK        -0.4607 
     50 C          30.2520  -49.0399  -52.6753 C.2       4 UNK         0.5031 
     51 O          30.0444  -49.4330  -53.8233 O.2       4 UNK        -0.5119 
     52 CA         31.0566  -49.9352  -51.7358 C.3       4 UNK         0.0263 
     53 CB         30.1911  -51.0867  -51.1933 C.3       4 UNK        -0.1967 
     54 N          32.1610  -50.4463  -52.5374 N.am      4 UNK        -0.4237 
     55 C          33.2959  -50.9899  -52.0902 C.2       3 UNK         0.4908 
     56 O          33.5320  -51.2285  -50.9054 O.2       3 UNK        -0.5102 
     57 CA         34.3624  -51.2766  -53.1581 C.3       3 UNK         0.0241 
     58 CB         33.9670  -52.4815  -54.0289 C.3       3 UNK        -0.1971 
     59 N          34.5870  -50.0985  -54.0024 N.am      3 UNK        -0.4139 
     60 C          35.3058  -49.0310  -53.6161 C.2       2 UNK         0.5016 
     61 O          35.9202  -48.9742  -52.5500 O.2       2 UNK        -0.5319 
     62 CA         35.3634  -47.8172  -54.5640 C.3       2 UNK         0.0286 
     63 CB         36.6467  -47.8526  -55.4092 C.3       2 UNK        -0.1963 
     64 N          34.2077  -47.7174  -55.4552 N.am      2 UNK        -0.4790 
     65 C          32.9611  -47.4176  -55.0632 C.2       1 UNK         0.5024 
     66 O          32.6771  -47.0890  -53.9120 O.2       1 UNK        -0.4888 
     67 H67        33.7164  -50.7103  -58.7096 H         1 UNK         0.0892 
     68 H68        31.9889  -51.0624  -58.8148 H         1 UNK         0.0892 
     69 H69        32.6267  -49.5628  -59.4929 H         1 UNK         0.0892 
     70 H70        32.1469  -47.7932  -58.1910 H         1 UNK         0.3107 
     71 H71        31.0316  -48.0639  -55.6466 H         1 UNK         0.0773 
     72 H72        30.8841  -45.6223  -55.5945 H         1 UNK         0.0680 
     73 H73        30.3725  -46.2632  -57.1042 H         1 UNK         0.0680 
     74 H74        33.7585  -43.2526  -56.4902 H         1 UNK         0.0650 
     75 H75        33.6422  -44.5782  -55.3674 H         1 UNK         0.0650 
     76 H76        32.2054  -44.3298  -53.4878 H         1 UNK         0.1397 
     77 H77        29.2899  -41.1865  -53.3570 H         1 UNK         0.1363 
     78 H78        31.5351  -41.8802  -56.9417 H         1 UNK         0.1355 
     79 H79        30.3485  -39.6762  -56.4858 H         1 UNK         0.0707 
     80 H80        29.2501  -39.5379  -55.1403 H         1 UNK         0.0707 
     81 H81        27.2848  -41.0276  -54.7856 H         1 UNK         0.1034 
     82 H82        26.0728  -41.0872  -56.0292 H         1 UNK         0.1034 
     83 H83        28.0979  -43.3206  -55.5042 H         1 UNK         0.0482 
     84 H84        25.5191  -45.1559  -55.5577 H         1 UNK         0.3460 
     85 H85        24.9612  -44.9871  -53.9113 H         1 UNK         0.3460 
     86 H86        25.6751  -43.5438  -57.2127 H         1 UNK         0.2989 
     87 H87        25.7380  -44.8334  -58.9939 H         1 UNK         0.0559 
     88 H88        28.1556  -43.7725  -60.5620 H         1 UNK         0.0848 
     89 H89        26.6997  -42.8632  -60.1890 H         1 UNK         0.0848 
     90 H90        26.6067  -44.2542  -61.2576 H         1 UNK         0.0848 
     91 H91        28.0609  -46.1943  -60.1010 H         1 UNK         0.3144 
     92 H92        27.2269  -49.0534  -59.6549 H         1 UNK         0.0727 
     93 H93        29.1723  -47.8311  -60.5451 H         1 UNK         0.0790 
     94 H94        29.7780  -49.1908  -59.6269 H         1 UNK         0.0790 
     95 H95        29.8236  -47.5761  -58.9288 H         1 UNK         0.0790 
     96 H96        27.7705  -48.6770  -56.8580 H         1 UNK         0.3215 
     97 H97        27.1998  -51.9659  -56.1791 H         1 UNK         0.0863 
     98 H98        30.0980  -51.0391  -55.8551 H         1 UNK         0.0808 
     99 H99        29.5561  -52.5838  -56.4835 H         1 UNK         0.0808 
    100 H100       29.2924  -52.1909  -54.7910 H         1 UNK         0.0808 
    101 H101       28.2825  -49.8157  -54.5550 H         1 UNK         0.3118 
    102 H102       25.4169  -47.9196  -54.3173 H         1 UNK         0.0546 
    103 H103       25.6636  -50.1485  -52.2247 H         1 UNK         0.0828 
    104 H104       24.2119  -49.7565  -53.1343 H         1 UNK         0.0828 
    105 H105       24.8585  -48.5958  -51.9897 H         1 UNK         0.0828 
    106 H106       27.4156  -48.4180  -52.3123 H         1 UNK         0.3005 
    107 H107       30.0017  -46.5347  -53.7619 H         1 UNK         0.1257 
    108 H108       28.1457  -45.7152  -51.4747 H         1 UNK         0.0775 
    109 H109       28.5299  -44.7417  -52.8737 H         1 UNK         0.0775 
    110 H110       29.4040  -42.7041  -51.5280 H         1 UNK         0.0840 
    111 H111       31.1115  -42.5959  -51.1827 H         1 UNK         0.0840 
    112 H112       30.0338  -47.6083  -51.2501 H         1 UNK         0.2987 
    113 H113       31.4549  -49.3410  -50.9108 H         1 UNK         0.0785 
    114 H114       29.3463  -50.7031  -50.6201 H         1 UNK         0.0798 
    115 H115       30.7621  -51.7377  -50.5313 H         1 UNK         0.0798 
    116 H116       29.7883  -51.7009  -52.0000 H         1 UNK         0.0798 
    117 H117       32.0455  -50.2869  -53.5321 H         1 UNK         0.3079 
    118 H118       35.2948  -51.5253  -52.6462 H         1 UNK         0.0794 
    119 H119       33.8276  -53.3737  -53.4171 H         1 UNK         0.0786 
    120 H120       34.7401  -52.7091  -54.7629 H         1 UNK         0.0786 
    121 H121       33.0354  -52.3092  -54.5693 H         1 UNK         0.0786 
    122 H122       34.0794  -50.0624  -54.8818 H         1 UNK         0.3032 
    123 H123       35.3873  -46.9208  -53.9397 H         1 UNK         0.1094 
    124 H124       37.5316  -47.8971  -54.7725 H         1 UNK         0.0794 
    125 H125       36.6743  -48.7226  -56.0665 H         1 UNK         0.0794 
    126 H126       36.7398  -46.9595  -56.0275 H         1 UNK         0.0794 
    127 H127       34.3516  -47.9669  -56.4229 H         1 UNK         0.3016 
@<TRIPOS>BOND
     1    1    2 1    
     2    1   67 1    
     3    1   68 1    
     4    1   69 1    
     5    2    3 2    
     6    2    4 am   BACKBONE|DICT|INTERRES
     7    4    5 1    
     8    4   70 1    
     9    5    6 1    
    10    5   65 1    
    11    5   71 1    
    12    6    7 1    
    13    6   72 1    
    14    6   73 1    
    15    7    8 1    
    16    8    9 1    
    17    8   74 1    
    18    8   75 1    
    19    9   10 ar   
    20    9   14 ar   
    21   10   11 ar   
    22   10   76 1    
    23   11   12 ar   
    24   11   48 1    
    25   12   13 ar   
    26   12   77 1    
    27   13   14 ar   
    28   13   15 1    
    29   14   78 1    
    30   15   16 1    
    31   15   79 1    
    32   15   80 1    
    33   16   17 1    
    34   17   18 1    
    35   17   81 1    
    36   17   82 1    
    37   18   19 1    
    38   18   22 1    
    39   18   83 1    
    40   19   20 am   BACKBONE|DICT|INTERRES
    41   19   21 2    
    42   20   84 1    
    43   20   85 1    
    44   22   23 am   BACKBONE|DICT|INTERRES
    45   22   86 1    
    46   23   24 2    
    47   23   25 1    
    48   25   26 1    
    49   25   27 1    
    50   25   87 1    
    51   26   88 1    
    52   26   89 1    
    53   26   90 1    
    54   27   28 am   BACKBONE|DICT|INTERRES
    55   27   91 1    
    56   28   29 2    
    57   28   30 1    
    58   30   31 1    
    59   30   32 1    
    60   30   92 1    
    61   31   93 1    
    62   31   94 1    
    63   31   95 1    
    64   32   33 am   BACKBONE|DICT|INTERRES
    65   32   96 1    
    66   33   34 2    
    67   33   35 1    
    68   35   36 1    
    69   35   37 1    
    70   35   97 1    
    71   36   98 1    
    72   36   99 1    
    73   36  100 1    
    74   37   38 am   BACKBONE|DICT|INTERRES
    75   37  101 1    
    76   38   39 2    
    77   38   40 1    
    78   40   41 1    
    79   40   42 1    
    80   40  102 1    
    81   41  103 1    
    82   41  104 1    
    83   41  105 1    
    84   42   43 am   BACKBONE|DICT|INTERRES
    85   42  106 1    
    86   43   44 2    
    87   43   45 1    
    88   45   46 1    
    89   45   49 1    
    90   45  107 1    
    91   46   47 1    
    92   46  108 1    
    93   46  109 1    
    94   47   48 1    
    95   48  110 1    
    96   48  111 1    
    97   49   50 am   BACKBONE|DICT|INTERRES
    98   49  112 1    
    99   50   51 2    
   100   50   52 1    
   101   52   53 1    
   102   52   54 1    
   103   52  113 1    
   104   53  114 1    
   105   53  115 1    
   106   53  116 1    
   107   54   55 am   BACKBONE|DICT|INTERRES
   108   54  117 1    
   109   55   56 2    
   110   55   57 1    
   111   57   58 1    
   112   57   59 1    
   113   57  118 1    
   114   58  119 1    
   115   58  120 1    
   116   58  121 1    
   117   59   60 am   BACKBONE|DICT|INTERRES
   118   59  122 1    
   119   60   61 2    
   120   60   62 1    
   121   62   63 1    
   122   62   64 1    
   123   62  123 1    
   124   63  124 1    
   125   63  125 1    
   126   63  126 1    
   127   64   65 am   BACKBONE|DICT|INTERRES
   128   64  127 1    
   129   65   66 2    
@<TRIPOS>SUBSTRUCTURE
     1 UNK         1 GROUP             0       ****    0 ROOT    
