@<TRIPOS>MOLECULE
3R134
127   129    1
SMALL
USER_CHARGES


@<TRIPOS>ATOM
      1 CA         30.1519  -45.0791  -52.0093 C.3       0 UNK        -0.1968 
      2 C          31.5860  -45.1488  -51.5041 C.2       0 UNK         0.4852 
      3 O          31.8152  -45.6059  -50.3838 O.2       0 UNK        -0.5359 
      4 N          32.5487  -44.6847  -52.3116 N.am      1 UNK        -0.4300 
      5 CA         33.9616  -44.5536  -51.9295 C.3       1 UNK         0.0863 
      6 C6         34.6725  -43.4182  -52.7112 C.3       11 UNK        -0.0953 
      7 S7         33.8563  -41.7957  -52.4976 S.3       11 UNK        -0.2369 
      8 C8         33.4534  -41.3152  -54.2089 C.3       11 UNK         0.0226 
      9 C9         32.3176  -42.1464  -54.7872 C.ar      11 UNK        -0.0699 
     10 C10        32.6012  -43.2762  -55.5594 C.ar      11 UNK        -0.0804 
     11 C11        31.5668  -44.0639  -56.0671 C.ar      11 UNK        -0.0871 
     12 C12        30.2421  -43.6953  -55.8320 C.ar      11 UNK        -0.1008 
     13 C13        29.9419  -42.5559  -55.0843 C.ar      11 UNK        -0.0735 
     14 C14        30.9844  -41.7865  -54.5563 C.ar      11 UNK        -0.0945 
     15 C15        28.4889  -42.1907  -54.8202 C.3       11 UNK         0.0169 
     16 S16        27.8552  -40.9252  -55.9688 S.3       11 UNK        -0.2669 
     17 C17        27.9446  -41.7212  -57.6138 C.3       11 UNK        -0.0850 
     18 CA         26.6679  -42.5281  -57.9713 C.3       10 UNK         0.0855 
     19 C          26.5611  -42.7559  -59.5038 C.2       10 UNK         0.5543 
     20 N          25.9593  -41.8208  -60.2255 N.am      10 UNK        -0.7343 
     21 O          27.0493  -43.7448  -60.0478 O.2       10 UNK        -0.5027 
     22 N          26.6201  -43.8006  -57.2410 N.am      10 UNK        -0.4495 
     23 C          25.5132  -44.5088  -57.0032 C.2       10 UNK         0.4903 
     24 O          24.3774  -44.1370  -57.3040 O.2       10 UNK        -0.4860 
     25 CA         25.7271  -45.8725  -56.3237 C.3       9 UNK         0.0227 
     26 CB         24.4558  -46.3930  -55.6292 C.3       9 UNK        -0.1964 
     27 N          26.1909  -46.8821  -57.2750 N.am      9 UNK        -0.4231 
     28 C          27.4224  -46.9708  -57.7907 C.2       9 UNK         0.5014 
     29 O          28.3313  -46.1808  -57.5286 O.2       9 UNK        -0.5270 
     30 CA         27.6837  -48.1751  -58.7170 C.3       8 UNK         0.0284 
     31 CB         29.0840  -48.1449  -59.3596 C.3       8 UNK        -0.1977 
     32 N          27.5068  -49.4462  -58.0065 N.am      8 UNK        -0.4342 
     33 C          26.3243  -50.0180  -57.7355 C.2       8 UNK         0.5039 
     34 O          25.2427  -49.5349  -58.0748 O.2       8 UNK        -0.5547 
     35 CA         26.3503  -51.3127  -56.9120 C.3       7 UNK         0.0281 
     36 CB         26.9644  -52.4738  -57.7127 C.3       7 UNK        -0.1963 
     37 N          27.1050  -51.1026  -55.6777 N.am      7 UNK        -0.4444 
     38 C          26.5685  -50.7020  -54.5146 C.2       7 UNK         0.5104 
     39 O          25.3585  -50.5899  -54.3169 O.2       7 UNK        -0.5100 
     40 CA         27.5515  -50.3422  -53.3827 C.3       6 UNK         0.0396 
     41 CB         27.8597  -51.5758  -52.5207 C.3       6 UNK        -0.1801 
     42 N          28.8015  -49.7828  -53.9012 N.am      6 UNK        -0.4747 
     43 C          28.8930  -48.5916  -54.5143 C.2       6 UNK         0.5012 
     44 O          27.9892  -47.7582  -54.4954 O.2       6 UNK        -0.5003 
     45 CA         30.1740  -48.2929  -55.3214 C.3       5 UNK         0.0782 
     46 C46        30.8933  -47.0313  -54.8021 C.3       11 UNK        -0.0868 
     47 S47        32.4238  -46.6575  -55.7270 S.3       11 UNK        -0.2515 
     48 C48        31.8809  -45.3304  -56.8441 C.3       11 UNK         0.0199 
     49 N          31.0698  -49.4473  -55.4087 N.am      5 UNK        -0.4607 
     50 C          30.8742  -50.5139  -56.1922 C.2       4 UNK         0.5031 
     51 O          29.8766  -50.6541  -56.9017 O.2       4 UNK        -0.5119 
     52 CA         31.9459  -51.6179  -56.1523 C.3       4 UNK         0.0263 
     53 CB         32.8959  -51.4742  -57.3513 C.3       4 UNK        -0.1967 
     54 N          32.7296  -51.6227  -54.9108 N.am      4 UNK        -0.4237 
     55 C          32.2376  -51.9353  -53.7028 C.2       3 UNK         0.4908 
     56 O          31.0779  -52.3033  -53.5143 O.2       3 UNK        -0.5102 
     57 CA         33.1815  -51.7649  -52.4979 C.3       3 UNK         0.0241 
     58 CB         34.0055  -53.0432  -52.2747 C.3       3 UNK        -0.1971 
     59 N          34.0836  -50.6081  -52.5957 N.am      3 UNK        -0.4139 
     60 C          33.6819  -49.3326  -52.6929 C.2       2 UNK         0.5016 
     61 O          32.4985  -48.9965  -52.7607 O.2       2 UNK        -0.5319 
     62 CA         34.7793  -48.2613  -52.7516 C.3       2 UNK         0.0286 
     63 CB         35.5559  -48.3282  -54.0800 C.3       2 UNK        -0.1963 
     64 N          34.1764  -46.9349  -52.6045 N.am      2 UNK        -0.4790 
     65 C          34.7588  -45.8765  -52.0263 C.2       1 UNK         0.5024 
     66 O          35.9029  -45.9120  -51.5698 O.2       1 UNK        -0.4888 
     67 H67        29.5447  -44.4870  -51.3253 H         1 UNK         0.0892 
     68 H68        30.0892  -44.6183  -52.9940 H         1 UNK         0.0892 
     69 H69        29.7194  -46.0776  -52.0676 H         1 UNK         0.0892 
     70 H70        32.3078  -44.3089  -53.2191 H         1 UNK         0.3107 
     71 H71        33.9915  -44.2725  -50.8743 H         1 UNK         0.0773 
     72 H72        34.7508  -43.6681  -53.7687 H         1 UNK         0.0680 
     73 H73        35.6995  -43.3036  -52.3592 H         1 UNK         0.0680 
     74 H74        34.3466  -41.3964  -54.8303 H         1 UNK         0.0650 
     75 H75        33.1733  -40.2609  -54.2182 H         1 UNK         0.0650 
     76 H76        33.6266  -43.5598  -55.7520 H         1 UNK         0.1397 
     77 H77        29.4417  -44.3071  -56.2209 H         1 UNK         0.1363 
     78 H78        30.7583  -40.9107  -53.9633 H         1 UNK         0.1355 
     79 H79        28.3931  -41.8121  -53.8015 H         1 UNK         0.0707 
     80 H80        27.8550  -43.0770  -54.8668 H         1 UNK         0.0707 
     81 H81        28.0858  -40.9073  -58.3280 H         1 UNK         0.1034 
     82 H82        28.8403  -42.3353  -57.7046 H         1 UNK         0.1034 
     83 H83        25.8002  -41.9368  -57.6705 H         1 UNK         0.0482 
     84 H84        25.8913  -41.9407  -61.2242 H         1 UNK         0.3460 
     85 H85        25.5625  -41.0013  -59.7919 H         1 UNK         0.3460 
     86 H86        27.5042  -44.2744  -57.1033 H         1 UNK         0.2989 
     87 H87        26.4920  -45.7429  -55.5550 H         1 UNK         0.0559 
     88 H88        24.0793  -45.6658  -54.9087 H         1 UNK         0.0848 
     89 H89        24.6557  -47.3157  -55.0832 H         1 UNK         0.0848 
     90 H90        23.6550  -46.5922  -56.3425 H         1 UNK         0.0848 
     91 H91        25.5294  -47.6064  -57.5382 H         1 UNK         0.3144 
     92 H92        26.9534  -48.1193  -59.5272 H         1 UNK         0.0727 
     93 H93        29.2080  -48.9603  -60.0722 H         1 UNK         0.0790 
     94 H94        29.8803  -48.2271  -58.6205 H         1 UNK         0.0790 
     95 H95        29.2416  -47.2132  -59.9048 H         1 UNK         0.0790 
     96 H96        28.3548  -49.9015  -57.6743 H         1 UNK         0.3215 
     97 H97        25.3186  -51.5813  -56.6736 H         1 UNK         0.0863 
     98 H98        26.9318  -53.4036  -57.1446 H         1 UNK         0.0808 
     99 H99        28.0039  -52.2863  -57.9836 H         1 UNK         0.0808 
    100 H100       26.4122  -52.6414  -58.6384 H         1 UNK         0.0808 
    101 H101       28.1137  -51.1333  -55.7581 H         1 UNK         0.3118 
    102 H102       27.0762  -49.5910  -52.7482 H         1 UNK         0.0546 
    103 H103       28.3248  -52.3716  -53.1040 H         1 UNK         0.0828 
    104 H104       26.9470  -51.9830  -52.0837 H         1 UNK         0.0828 
    105 H105       28.5310  -51.3285  -51.6982 H         1 UNK         0.0828 
    106 H106       29.6061  -50.3968  -53.9156 H         1 UNK         0.3005 
    107 H107       29.8367  -48.0661  -56.3324 H         1 UNK         0.1257 
    108 H108       31.1530  -47.1466  -53.7521 H         1 UNK         0.0775 
    109 H109       30.2161  -46.1803  -54.8473 H         1 UNK         0.0775 
    110 H110       32.6709  -45.1283  -57.5687 H         1 UNK         0.0840 
    111 H111       31.0161  -45.6669  -57.4183 H         1 UNK         0.0840 
    112 H112       31.8759  -49.4157  -54.7972 H         1 UNK         0.2987 
    113 H113       31.4297  -52.5769  -56.2332 H         1 UNK         0.0785 
    114 H114       32.3423  -51.4936  -58.2914 H         1 UNK         0.0798 
    115 H115       33.6182  -52.2900  -57.3864 H         1 UNK         0.0798 
    116 H116       33.4489  -50.5344  -57.3188 H         1 UNK         0.0798 
    117 H117       33.6944  -51.3323  -54.9767 H         1 UNK         0.3079 
    118 H118       32.5521  -51.6101  -51.6188 H         1 UNK         0.0794 
    119 H119       34.6878  -53.2361  -53.1036 H         1 UNK         0.0786 
    120 H120       33.3557  -53.9144  -52.1780 H         1 UNK         0.0786 
    121 H121       34.5961  -52.9807  -51.3603 H         1 UNK         0.0786 
    122 H122       35.0736  -50.8040  -52.5501 H         1 UNK         0.3032 
    123 H123       35.4624  -48.4449  -51.9189 H         1 UNK         0.1094 
    124 H124       34.8980  -48.1949  -54.9393 H         1 UNK         0.0794 
    125 H125       36.3247  -47.5568  -54.1281 H         1 UNK         0.0794 
    126 H126       36.0592  -49.2881  -54.1996 H         1 UNK         0.0794 
    127 H127       33.2109  -46.8740  -52.9017 H         1 UNK         0.3016 
@<TRIPOS>BOND
     1    1    2 1    
     2    1   67 1    
     3    1   68 1    
     4    1   69 1    
     5    2    3 2    
     6    2    4 am   BACKBONE|DICT|INTERRES
     7    4    5 1    
     8    4   70 1    
     9    5    6 1    
    10    5   65 1    
    11    5   71 1    
    12    6    7 1    
    13    6   72 1    
    14    6   73 1    
    15    7    8 1    
    16    8    9 1    
    17    8   74 1    
    18    8   75 1    
    19    9   10 ar   
    20    9   14 ar   
    21   10   11 ar   
    22   10   76 1    
    23   11   12 ar   
    24   11   48 1    
    25   12   13 ar   
    26   12   77 1    
    27   13   14 ar   
    28   13   15 1    
    29   14   78 1    
    30   15   16 1    
    31   15   79 1    
    32   15   80 1    
    33   16   17 1    
    34   17   18 1    
    35   17   81 1    
    36   17   82 1    
    37   18   19 1    
    38   18   22 1    
    39   18   83 1    
    40   19   20 am   BACKBONE|DICT|INTERRES
    41   19   21 2    
    42   20   84 1    
    43   20   85 1    
    44   22   23 am   BACKBONE|DICT|INTERRES
    45   22   86 1    
    46   23   24 2    
    47   23   25 1    
    48   25   26 1    
    49   25   27 1    
    50   25   87 1    
    51   26   88 1    
    52   26   89 1    
    53   26   90 1    
    54   27   28 am   BACKBONE|DICT|INTERRES
    55   27   91 1    
    56   28   29 2    
    57   28   30 1    
    58   30   31 1    
    59   30   32 1    
    60   30   92 1    
    61   31   93 1    
    62   31   94 1    
    63   31   95 1    
    64   32   33 am   BACKBONE|DICT|INTERRES
    65   32   96 1    
    66   33   34 2    
    67   33   35 1    
    68   35   36 1    
    69   35   37 1    
    70   35   97 1    
    71   36   98 1    
    72   36   99 1    
    73   36  100 1    
    74   37   38 am   BACKBONE|DICT|INTERRES
    75   37  101 1    
    76   38   39 2    
    77   38   40 1    
    78   40   41 1    
    79   40   42 1    
    80   40  102 1    
    81   41  103 1    
    82   41  104 1    
    83   41  105 1    
    84   42   43 am   BACKBONE|DICT|INTERRES
    85   42  106 1    
    86   43   44 2    
    87   43   45 1    
    88   45   46 1    
    89   45   49 1    
    90   45  107 1    
    91   46   47 1    
    92   46  108 1    
    93   46  109 1    
    94   47   48 1    
    95   48  110 1    
    96   48  111 1    
    97   49   50 am   BACKBONE|DICT|INTERRES
    98   49  112 1    
    99   50   51 2    
   100   50   52 1    
   101   52   53 1    
   102   52   54 1    
   103   52  113 1    
   104   53  114 1    
   105   53  115 1    
   106   53  116 1    
   107   54   55 am   BACKBONE|DICT|INTERRES
   108   54  117 1    
   109   55   56 2    
   110   55   57 1    
   111   57   58 1    
   112   57   59 1    
   113   57  118 1    
   114   58  119 1    
   115   58  120 1    
   116   58  121 1    
   117   59   60 am   BACKBONE|DICT|INTERRES
   118   59  122 1    
   119   60   61 2    
   120   60   62 1    
   121   62   63 1    
   122   62   64 1    
   123   62  123 1    
   124   63  124 1    
   125   63  125 1    
   126   63  126 1    
   127   64   65 am   BACKBONE|DICT|INTERRES
   128   64  127 1    
   129   65   66 2    
@<TRIPOS>SUBSTRUCTURE
     1 UNK         1 GROUP             0       ****    0 ROOT    
