@<TRIPOS>MOLECULE
3R134
127   129    1
SMALL
USER_CHARGES


@<TRIPOS>ATOM
      1 CA         34.1190  -43.5165  -50.0466 C.3       0 UNK        -0.1968 
      2 C          34.8460  -44.6203  -50.8006 C.2       0 UNK         0.4852 
      3 O          35.8736  -45.1088  -50.3297 O.2       0 UNK        -0.5359 
      4 N          34.3114  -45.0241  -51.9609 N.am      1 UNK        -0.4300 
      5 CA         34.8823  -46.0510  -52.8469 C.3       1 UNK         0.0863 
      6 C6         34.6113  -45.7592  -54.3486 C.3       11 UNK        -0.0953 
      7 S7         35.1394  -44.0862  -54.8609 S.3       11 UNK        -0.2369 
      8 C8         34.0107  -43.7314  -56.2591 C.3       11 UNK         0.0226 
      9 C9         32.5255  -43.5796  -55.9145 C.ar      11 UNK        -0.0699 
     10 C10        32.0629  -43.4744  -54.5973 C.ar      11 UNK        -0.0804 
     11 C11        30.6963  -43.4145  -54.3203 C.ar      11 UNK        -0.0871 
     12 C12        29.7808  -43.3934  -55.3732 C.ar      11 UNK        -0.1008 
     13 C13        30.2234  -43.4499  -56.6968 C.ar      11 UNK        -0.0735 
     14 C14        31.5940  -43.5531  -56.9593 C.ar      11 UNK        -0.0945 
     15 C15        29.2134  -43.4519  -57.8338 C.3       11 UNK         0.0169 
     16 S16        28.1606  -41.9661  -57.8247 S.3       11 UNK        -0.2669 
     17 C17        26.9686  -42.3862  -59.1411 C.3       11 UNK        -0.0850 
     18 CA         25.6249  -42.9495  -58.6032 C.3       10 UNK         0.0855 
     19 C          24.6164  -43.1275  -59.7774 C.2       10 UNK         0.5543 
     20 N          24.3163  -44.3434  -60.2212 N.am      10 UNK        -0.7343 
     21 O          24.1002  -42.1398  -60.2941 O.2       10 UNK        -0.5027 
     22 N          25.8256  -44.1625  -57.7943 N.am      10 UNK        -0.4495 
     23 C          24.8978  -44.7526  -57.0299 C.2       10 UNK         0.4903 
     24 O          23.8030  -44.2457  -56.7803 O.2       10 UNK        -0.4860 
     25 CA         25.2428  -46.1452  -56.4525 C.3       9 UNK         0.0227 
     26 CB         24.0063  -47.0649  -56.3836 C.3       9 UNK        -0.1964 
     27 N          26.3508  -46.8462  -57.1230 N.am      9 UNK        -0.4231 
     28 C          26.4517  -47.1590  -58.4258 C.2       9 UNK         0.5014 
     29 O          25.6140  -46.8491  -59.2749 O.2       9 UNK        -0.5270 
     30 CA         27.7181  -47.9068  -58.8681 C.3       8 UNK         0.0284 
     31 CB         28.8994  -46.9375  -59.0285 C.3       8 UNK        -0.1977 
     32 N          28.0865  -48.9967  -57.9622 N.am      8 UNK        -0.4342 
     33 C          27.4366  -50.1690  -57.9152 C.2       8 UNK         0.5039 
     34 O          26.4538  -50.4361  -58.6086 O.2       8 UNK        -0.5547 
     35 CA         27.9825  -51.2390  -56.9570 C.3       7 UNK         0.0281 
     36 CB         29.2464  -51.8916  -57.5400 C.3       7 UNK        -0.1963 
     37 N          28.2586  -50.7225  -55.6161 N.am      7 UNK        -0.4444 
     38 C          27.3153  -50.3271  -54.7493 C.2       7 UNK         0.5104 
     39 O          26.1063  -50.3815  -54.9765 O.2       7 UNK        -0.5100 
     40 CA         27.7987  -49.7664  -53.3995 C.3       6 UNK         0.0396 
     41 CB         28.1276  -50.9057  -52.4222 C.3       6 UNK        -0.1801 
     42 N          28.9550  -48.8760  -53.5159 N.am      6 UNK        -0.4747 
     43 C          28.9770  -47.7329  -54.2183 C.2       6 UNK         0.5012 
     44 O          28.0250  -47.2990  -54.8678 O.2       6 UNK        -0.5003 
     45 CA         30.3220  -46.9834  -54.2522 C.3       5 UNK         0.0782 
     46 C46        30.6259  -46.2524  -52.9142 C.3       11 UNK        -0.0868 
     47 S47        29.3830  -44.9876  -52.4594 S.3       11 UNK        -0.2515 
     48 C48        30.2087  -43.4190  -52.8809 C.3       11 UNK         0.0199 
     49 N          31.3970  -47.9032  -54.6453 N.am      5 UNK        -0.4607 
     50 C          31.4686  -48.5173  -55.8379 C.2       4 UNK         0.5031 
     51 O          30.6837  -48.3101  -56.7619 O.2       4 UNK        -0.5119 
     52 CA         32.5530  -49.5911  -56.0196 C.3       4 UNK         0.0263 
     53 CB         33.8513  -48.9867  -56.5708 C.3       4 UNK        -0.1967 
     54 N          32.8229  -50.3301  -54.7848 N.am      4 UNK        -0.4237 
     55 C          31.9717  -51.2259  -54.2620 C.2       3 UNK         0.4908 
     56 O          30.9026  -51.5351  -54.7854 O.2       3 UNK        -0.5102 
     57 CA         32.3439  -51.8511  -52.9076 C.3       3 UNK         0.0241 
     58 CB         33.2195  -53.0975  -53.1106 C.3       3 UNK        -0.1971 
     59 N          33.0166  -50.9202  -51.9991 N.am      3 UNK        -0.4139 
     60 C          32.4967  -49.7656  -51.5605 C.2       2 UNK         0.5016 
     61 O          31.3750  -49.3630  -51.8724 O.2       2 UNK        -0.5319 
     62 CA         33.3766  -48.8934  -50.6465 C.3       2 UNK         0.0286 
     63 CB         34.6156  -49.6246  -50.0801 C.3       2 UNK        -0.1963 
     64 N          33.7857  -47.6391  -51.2925 N.am      2 UNK        -0.4790 
     65 C          34.4504  -47.4857  -52.4507 C.2       1 UNK         0.5024 
     66 O          34.7252  -48.4255  -53.1991 O.2       1 UNK        -0.4888 
     67 H67        33.2212  -43.1855  -50.5681 H         1 UNK         0.0892 
     68 H68        33.8263  -43.8671  -49.0572 H         1 UNK         0.0892 
     69 H69        34.7743  -42.6548  -49.9221 H         1 UNK         0.0892 
     70 H70        33.4668  -44.5849  -52.2901 H         1 UNK         0.3107 
     71 H71        35.9672  -46.0346  -52.7219 H         1 UNK         0.0773 
     72 H72        33.5571  -45.9033  -54.5883 H         1 UNK         0.0680 
     73 H73        35.1683  -46.4596  -54.9708 H         1 UNK         0.0680 
     74 H74        34.1286  -44.5247  -56.9990 H         1 UNK         0.0650 
     75 H75        34.3458  -42.8104  -56.7377 H         1 UNK         0.0650 
     76 H76        32.7601  -43.4647  -53.7754 H         1 UNK         0.1397 
     77 H77        28.7207  -43.3490  -55.1618 H         1 UNK         0.1363 
     78 H78        31.9390  -43.6236  -57.9820 H         1 UNK         0.1355 
     79 H79        29.7128  -43.5332  -58.8007 H         1 UNK         0.0707 
     80 H80        28.5849  -44.3337  -57.7269 H         1 UNK         0.0707 
     81 H81        26.7893  -41.4718  -59.7107 H         1 UNK         0.1034 
     82 H82        27.4265  -43.0853  -59.8438 H         1 UNK         0.1034 
     83 H83        25.1923  -42.1964  -57.9418 H         1 UNK         0.0482 
     84 H84        23.6614  -44.4431  -60.9800 H         1 UNK         0.3460 
     85 H85        24.7467  -45.1690  -59.8151 H         1 UNK         0.3460 
     86 H86        26.6889  -44.6576  -57.9453 H         1 UNK         0.2989 
     87 H87        25.5790  -45.9680  -55.4301 H         1 UNK         0.0559 
     88 H88        23.5837  -47.2455  -57.3726 H         1 UNK         0.0848 
     89 H89        23.2203  -46.6263  -55.7678 H         1 UNK         0.0848 
     90 H90        24.2570  -48.0311  -55.9448 H         1 UNK         0.0848 
     91 H91        27.0994  -47.1328  -56.4939 H         1 UNK         0.3144 
     92 H92        27.5134  -48.3372  -59.8511 H         1 UNK         0.0727 
     93 H93        29.2133  -46.5233  -58.0705 H         1 UNK         0.0790 
     94 H94        28.6417  -46.1053  -59.6850 H         1 UNK         0.0790 
     95 H95        29.7623  -47.4395  -59.4665 H         1 UNK         0.0790 
     96 H96        28.9114  -48.8540  -57.3839 H         1 UNK         0.3215 
     97 H97        27.2199  -52.0154  -56.8623 H         1 UNK         0.0863 
     98 H98        29.5869  -52.7202  -56.9188 H         1 UNK         0.0808 
     99 H99        30.0666  -51.1786  -57.6261 H         1 UNK         0.0808 
    100 H100       29.0554  -52.2921  -58.5365 H         1 UNK         0.0808 
    101 H101       29.2294  -50.7270  -55.3139 H         1 UNK         0.3118 
    102 H102       26.9812  -49.1807  -52.9743 H         1 UNK         0.0546 
    103 H103       27.2671  -51.5616  -52.2839 H         1 UNK         0.0828 
    104 H104       28.4030  -50.5198  -51.4406 H         1 UNK         0.0828 
    105 H105       28.9524  -51.5212  -52.7821 H         1 UNK         0.0828 
    106 H106       29.7944  -49.1429  -53.0068 H         1 UNK         0.3005 
    107 H107       30.2468  -46.2289  -55.0386 H         1 UNK         0.1257 
    108 H108       31.6087  -45.7864  -52.9600 H         1 UNK         0.0775 
    109 H109       30.6785  -46.9602  -52.0879 H         1 UNK         0.0775 
    110 H110       29.5073  -42.5966  -52.7331 H         1 UNK         0.0840 
    111 H111       31.0307  -43.2481  -52.1846 H         1 UNK         0.0840 
    112 H112       32.0276  -48.1996  -53.9147 H         1 UNK         0.2987 
    113 H113       32.1829  -50.2998  -56.7634 H         1 UNK         0.0785 
    114 H114       33.6612  -48.4060  -57.4747 H         1 UNK         0.0798 
    115 H115       34.5694  -49.7647  -56.8301 H         1 UNK         0.0798 
    116 H116       34.3248  -48.3253  -55.8498 H         1 UNK         0.0798 
    117 H117       33.6600  -50.0819  -54.2703 H         1 UNK         0.3079 
    118 H118       31.4143  -52.1618  -52.4263 H         1 UNK         0.0794 
    119 H119       34.1818  -52.8480  -53.5595 H         1 UNK         0.0786 
    120 H120       32.7285  -53.8152  -53.7697 H         1 UNK         0.0786 
    121 H121       33.4106  -53.6070  -52.1659 H         1 UNK         0.0786 
    122 H122       33.9532  -51.1610  -51.7091 H         1 UNK         0.3032 
    123 H123       32.7424  -48.6193  -49.8016 H         1 UNK         0.1094 
    124 H124       35.1386  -48.9966  -49.3584 H         1 UNK         0.0794 
    125 H125       34.3324  -50.5383  -49.5553 H         1 UNK         0.0794 
    126 H126       35.3333  -49.8914  -50.8568 H         1 UNK         0.0794 
    127 H127       33.5876  -46.7997  -50.7669 H         1 UNK         0.3016 
@<TRIPOS>BOND
     1    1    2 1    
     2    1   67 1    
     3    1   68 1    
     4    1   69 1    
     5    2    3 2    
     6    2    4 am   BACKBONE|DICT|INTERRES
     7    4    5 1    
     8    4   70 1    
     9    5    6 1    
    10    5   65 1    
    11    5   71 1    
    12    6    7 1    
    13    6   72 1    
    14    6   73 1    
    15    7    8 1    
    16    8    9 1    
    17    8   74 1    
    18    8   75 1    
    19    9   10 ar   
    20    9   14 ar   
    21   10   11 ar   
    22   10   76 1    
    23   11   12 ar   
    24   11   48 1    
    25   12   13 ar   
    26   12   77 1    
    27   13   14 ar   
    28   13   15 1    
    29   14   78 1    
    30   15   16 1    
    31   15   79 1    
    32   15   80 1    
    33   16   17 1    
    34   17   18 1    
    35   17   81 1    
    36   17   82 1    
    37   18   19 1    
    38   18   22 1    
    39   18   83 1    
    40   19   20 am   BACKBONE|DICT|INTERRES
    41   19   21 2    
    42   20   84 1    
    43   20   85 1    
    44   22   23 am   BACKBONE|DICT|INTERRES
    45   22   86 1    
    46   23   24 2    
    47   23   25 1    
    48   25   26 1    
    49   25   27 1    
    50   25   87 1    
    51   26   88 1    
    52   26   89 1    
    53   26   90 1    
    54   27   28 am   BACKBONE|DICT|INTERRES
    55   27   91 1    
    56   28   29 2    
    57   28   30 1    
    58   30   31 1    
    59   30   32 1    
    60   30   92 1    
    61   31   93 1    
    62   31   94 1    
    63   31   95 1    
    64   32   33 am   BACKBONE|DICT|INTERRES
    65   32   96 1    
    66   33   34 2    
    67   33   35 1    
    68   35   36 1    
    69   35   37 1    
    70   35   97 1    
    71   36   98 1    
    72   36   99 1    
    73   36  100 1    
    74   37   38 am   BACKBONE|DICT|INTERRES
    75   37  101 1    
    76   38   39 2    
    77   38   40 1    
    78   40   41 1    
    79   40   42 1    
    80   40  102 1    
    81   41  103 1    
    82   41  104 1    
    83   41  105 1    
    84   42   43 am   BACKBONE|DICT|INTERRES
    85   42  106 1    
    86   43   44 2    
    87   43   45 1    
    88   45   46 1    
    89   45   49 1    
    90   45  107 1    
    91   46   47 1    
    92   46  108 1    
    93   46  109 1    
    94   47   48 1    
    95   48  110 1    
    96   48  111 1    
    97   49   50 am   BACKBONE|DICT|INTERRES
    98   49  112 1    
    99   50   51 2    
   100   50   52 1    
   101   52   53 1    
   102   52   54 1    
   103   52  113 1    
   104   53  114 1    
   105   53  115 1    
   106   53  116 1    
   107   54   55 am   BACKBONE|DICT|INTERRES
   108   54  117 1    
   109   55   56 2    
   110   55   57 1    
   111   57   58 1    
   112   57   59 1    
   113   57  118 1    
   114   58  119 1    
   115   58  120 1    
   116   58  121 1    
   117   59   60 am   BACKBONE|DICT|INTERRES
   118   59  122 1    
   119   60   61 2    
   120   60   62 1    
   121   62   63 1    
   122   62   64 1    
   123   62  123 1    
   124   63  124 1    
   125   63  125 1    
   126   63  126 1    
   127   64   65 am   BACKBONE|DICT|INTERRES
   128   64  127 1    
   129   65   66 2    
@<TRIPOS>SUBSTRUCTURE
     1 UNK         1 GROUP             0       ****    0 ROOT    
