@<TRIPOS>MOLECULE
3R134
127   129    1
SMALL
USER_CHARGES


@<TRIPOS>ATOM
      1 CA         37.5326  -44.0089  -53.4464 C.3       0 UNK        -0.1968 
      2 C          36.1417  -44.6187  -53.3612 C.2       0 UNK         0.4852 
      3 O          35.6865  -45.2433  -54.3210 O.2       0 UNK        -0.5359 
      4 N          35.4637  -44.4544  -52.2176 N.am      1 UNK        -0.4300 
      5 CA         34.1033  -44.9410  -51.9501 C.3       1 UNK         0.0863 
      6 C6         33.3739  -44.0810  -50.8826 C.3       11 UNK        -0.0953 
      7 S7         33.3638  -42.3003  -51.2911 S.3       11 UNK        -0.2369 
      8 C8         31.6331  -42.0197  -51.8050 C.3       11 UNK         0.0226 
      9 C9         31.2065  -42.7415  -53.0838 C.ar      11 UNK        -0.0699 
     10 C10        32.1077  -43.0182  -54.1196 C.ar      11 UNK        -0.0804 
     11 C11        31.6976  -43.6968  -55.2709 C.ar      11 UNK        -0.0871 
     12 C12        30.3486  -44.0422  -55.4096 C.ar      11 UNK        -0.1008 
     13 C13        29.4281  -43.7424  -54.4031 C.ar      11 UNK        -0.0735 
     14 C14        29.8656  -43.1049  -53.2394 C.ar      11 UNK        -0.0945 
     15 C15        27.9604  -44.1055  -54.5671 C.3       11 UNK         0.0169 
     16 S16        26.9943  -42.7013  -55.2055 S.3       11 UNK        -0.2669 
     17 C17        27.3289  -42.7965  -57.0006 C.3       11 UNK        -0.0850 
     18 CA         26.1006  -43.3009  -57.8031 C.3       10 UNK         0.0855 
     19 C          26.3390  -43.2155  -59.3403 C.2       10 UNK         0.5543 
     20 N          26.1233  -44.2708  -60.1179 N.am      10 UNK        -0.7343 
     21 O          26.7190  -42.1606  -59.8426 O.2       10 UNK        -0.5027 
     22 N          25.6651  -44.6274  -57.3414 N.am      10 UNK        -0.4495 
     23 C          24.4009  -45.0631  -57.3398 C.2       10 UNK         0.4903 
     24 O          23.4356  -44.3756  -57.6776 O.2       10 UNK        -0.4860 
     25 CA         24.1941  -46.5218  -56.8880 C.3       9 UNK         0.0227 
     26 CB         22.8135  -47.0834  -57.2889 C.3       9 UNK        -0.1964 
     27 N          25.2656  -47.4259  -57.3284 N.am      9 UNK        -0.4231 
     28 C          25.6486  -47.6777  -58.5930 C.2       9 UNK         0.5014 
     29 O          25.1738  -47.1024  -59.5735 O.2       9 UNK        -0.5270 
     30 CA         26.7569  -48.7255  -58.8222 C.3       8 UNK         0.0284 
     31 CB         27.9898  -48.0843  -59.4828 C.3       8 UNK        -0.1977 
     32 N          27.1602  -49.4190  -57.5956 N.am      8 UNK        -0.4342 
     33 C          26.4512  -50.3969  -57.0125 C.2       8 UNK         0.5039 
     34 O          25.4285  -50.8767  -57.5029 O.2       8 UNK        -0.5547 
     35 CA         26.9298  -50.9158  -55.6436 C.3       7 UNK         0.0281 
     36 CB         27.6296  -52.2744  -55.8072 C.3       7 UNK        -0.1963 
     37 N          27.8118  -49.9974  -54.9143 N.am      7 UNK        -0.4444 
     38 C          27.4754  -48.7730  -54.4817 C.2       7 UNK         0.5104 
     39 O          26.3642  -48.2697  -54.6512 O.2       7 UNK        -0.5100 
     40 CA         28.5917  -47.9425  -53.8214 C.3       6 UNK         0.0396 
     41 CB         28.8105  -48.3666  -52.3619 C.3       6 UNK        -0.1801 
     42 N          29.8582  -48.0158  -54.5561 N.am      6 UNK        -0.4747 
     43 C          30.0242  -47.6206  -55.8281 C.2       6 UNK         0.5012 
     44 O          29.1320  -47.1013  -56.4983 O.2       6 UNK        -0.5003 
     45 CA         31.3850  -47.9252  -56.4813 C.3       5 UNK         0.0782 
     46 C46        32.4522  -46.8413  -56.1768 C.3       11 UNK        -0.0868 
     47 S47        32.3703  -45.4734  -57.3822 S.3       11 UNK        -0.2515 
     48 C48        32.7351  -44.0124  -56.3484 C.3       11 UNK         0.0199 
     49 N          31.8372  -49.2677  -56.1098 N.am      5 UNK        -0.4607 
     50 C          31.3710  -50.3971  -56.6611 C.2       4 UNK         0.5031 
     51 O          30.5572  -50.4191  -57.5835 O.2       4 UNK        -0.5119 
     52 CA         31.8844  -51.7290  -56.0838 C.3       4 UNK         0.0263 
     53 CB         33.1313  -52.1989  -56.8495 C.3       4 UNK        -0.1967 
     54 N          32.1903  -51.6639  -54.6526 N.am      4 UNK        -0.4237 
     55 C          31.2763  -51.4836  -53.6886 C.2       3 UNK         0.4908 
     56 O          30.0683  -51.3985  -53.8993 O.2       3 UNK        -0.5102 
     57 CA         31.8013  -51.3079  -52.2533 C.3       3 UNK         0.0241 
     58 CB         31.9727  -52.6743  -51.5710 C.3       3 UNK        -0.1971 
     59 N          33.0564  -50.5513  -52.1688 N.am      3 UNK        -0.4139 
     60 C          33.2371  -49.3107  -52.6427 C.2       2 UNK         0.5016 
     61 O          32.3697  -48.6737  -53.2475 O.2       2 UNK        -0.5319 
     62 CA         34.6441  -48.7169  -52.4764 C.3       2 UNK         0.0286 
     63 CB         35.5738  -49.2361  -53.5857 C.3       2 UNK        -0.1963 
     64 N          34.6209  -47.2569  -52.5376 N.am      2 UNK        -0.4790 
     65 C          34.1073  -46.4458  -51.6056 C.2       1 UNK         0.5024 
     66 O          33.6803  -46.8423  -50.5193 O.2       1 UNK        -0.4888 
     67 H67        37.7867  -43.4429  -52.5488 H         1 UNK         0.0892 
     68 H68        38.2775  -44.7942  -53.5765 H         1 UNK         0.0892 
     69 H69        37.5937  -43.3342  -54.3012 H         1 UNK         0.0892 
     70 H70        35.8947  -43.9483  -51.4570 H         1 UNK         0.3107 
     71 H71        33.5289  -44.8662  -52.8734 H         1 UNK         0.0773 
     72 H72        32.3452  -44.4239  -50.7559 H         1 UNK         0.0680 
     73 H73        33.8541  -44.1932  -49.9086 H         1 UNK         0.0680 
     74 H74        31.4904  -40.9492  -51.9551 H         1 UNK         0.0650 
     75 H75        30.9817  -42.3037  -50.9771 H         1 UNK         0.0650 
     76 H76        33.1430  -42.7213  -54.0253 H         1 UNK         0.1397 
     77 H77        30.0083  -44.5460  -56.3024 H         1 UNK         0.1363 
     78 H78        29.1527  -42.8768  -52.4586 H         1 UNK         0.1355 
     79 H79        27.8447  -44.9660  -55.2274 H         1 UNK         0.0707 
     80 H80        27.5479  -44.4056  -53.6028 H         1 UNK         0.0707 
     81 H81        27.6135  -41.7952  -57.3294 H         1 UNK         0.1034 
     82 H82        28.1947  -43.4293  -57.1953 H         1 UNK         0.1034 
     83 H83        25.2903  -42.5965  -57.6056 H         1 UNK         0.0482 
     84 H84        25.7756  -45.1444  -59.7393 H         1 UNK         0.3460 
     85 H85        26.2803  -44.1869  -61.1094 H         1 UNK         0.3460 
     86 H86        26.3957  -45.2687  -57.0715 H         1 UNK         0.2989 
     87 H87        24.2402  -46.5091  -55.7982 H         1 UNK         0.0559 
     88 H88        22.6742  -47.0792  -58.3705 H         1 UNK         0.0848 
     89 H89        22.0073  -46.4905  -56.8551 H         1 UNK         0.0848 
     90 H90        22.6849  -48.1074  -56.9383 H         1 UNK         0.0848 
     91 H91        25.7445  -47.9136  -56.5774 H         1 UNK         0.3144 
     92 H92        26.3577  -49.4676  -59.5168 H         1 UNK         0.0727 
     93 H93        28.8084  -48.7977  -59.5828 H         1 UNK         0.0790 
     94 H94        27.7477  -47.7265  -60.4844 H         1 UNK         0.0790 
     95 H95        28.3558  -47.2261  -58.9200 H         1 UNK         0.0790 
     96 H96        27.9872  -49.0702  -57.1282 H         1 UNK         0.3215 
     97 H97        26.0383  -51.0640  -55.0308 H         1 UNK         0.0863 
     98 H98        27.8703  -52.7163  -54.8403 H         1 UNK         0.0808 
     99 H99        28.5557  -52.1823  -56.3753 H         1 UNK         0.0808 
    100 H100       26.9912  -52.9842  -56.3349 H         1 UNK         0.0808 
    101 H101       28.7343  -50.3568  -54.6749 H         1 UNK         0.3118 
    102 H102       28.2742  -46.8993  -53.8211 H         1 UNK         0.0546 
    103 H103       29.5814  -47.7616  -51.8840 H         1 UNK         0.0828 
    104 H104       29.1087  -49.4116  -52.2839 H         1 UNK         0.0828 
    105 H105       27.8952  -48.2457  -51.7813 H         1 UNK         0.0828 
    106 H106       30.6621  -48.3962  -54.0614 H         1 UNK         0.3005 
    107 H107       31.2154  -47.9374  -57.5612 H         1 UNK         0.1257 
    108 H108       33.4553  -47.2637  -56.2538 H         1 UNK         0.0775 
    109 H109       32.3698  -46.4671  -55.1541 H         1 UNK         0.0775 
    110 H110       33.7154  -44.1585  -55.8920 H         1 UNK         0.0840 
    111 H111       32.8262  -43.1432  -57.0009 H         1 UNK         0.0840 
    112 H112       32.4334  -49.3257  -55.2951 H         1 UNK         0.2987 
    113 H113       31.0970  -52.4725  -56.2244 H         1 UNK         0.0785 
    114 H114       32.9253  -52.2779  -57.9179 H         1 UNK         0.0798 
    115 H115       33.4577  -53.1825  -56.5114 H         1 UNK         0.0798 
    116 H116       33.9658  -51.5068  -56.7293 H         1 UNK         0.0798 
    117 H117       33.1621  -51.7268  -54.3876 H         1 UNK         0.3079 
    118 H118       31.0485  -50.7448  -51.6987 H         1 UNK         0.0794 
    119 H119       32.2442  -52.5628  -50.5212 H         1 UNK         0.0786 
    120 H120       32.7422  -53.2765  -52.0556 H         1 UNK         0.0786 
    121 H121       31.0435  -53.2452  -51.6033 H         1 UNK         0.0786 
    122 H122       33.8255  -51.0088  -51.7001 H         1 UNK         0.3032 
    123 H123       35.0394  -49.0155  -51.5028 H         1 UNK         0.1094 
    124 H124       35.2119  -48.9605  -54.5773 H         1 UNK         0.0794 
    125 H125       36.5818  -48.8353  -53.4763 H         1 UNK         0.0794 
    126 H126       35.6564  -50.3233  -53.5577 H         1 UNK         0.0794 
    127 H127       34.9575  -46.8217  -53.3919 H         1 UNK         0.3016 
@<TRIPOS>BOND
     1    1    2 1    
     2    1   67 1    
     3    1   68 1    
     4    1   69 1    
     5    2    3 2    
     6    2    4 am   BACKBONE|DICT|INTERRES
     7    4    5 1    
     8    4   70 1    
     9    5    6 1    
    10    5   65 1    
    11    5   71 1    
    12    6    7 1    
    13    6   72 1    
    14    6   73 1    
    15    7    8 1    
    16    8    9 1    
    17    8   74 1    
    18    8   75 1    
    19    9   10 ar   
    20    9   14 ar   
    21   10   11 ar   
    22   10   76 1    
    23   11   12 ar   
    24   11   48 1    
    25   12   13 ar   
    26   12   77 1    
    27   13   14 ar   
    28   13   15 1    
    29   14   78 1    
    30   15   16 1    
    31   15   79 1    
    32   15   80 1    
    33   16   17 1    
    34   17   18 1    
    35   17   81 1    
    36   17   82 1    
    37   18   19 1    
    38   18   22 1    
    39   18   83 1    
    40   19   20 am   BACKBONE|DICT|INTERRES
    41   19   21 2    
    42   20   84 1    
    43   20   85 1    
    44   22   23 am   BACKBONE|DICT|INTERRES
    45   22   86 1    
    46   23   24 2    
    47   23   25 1    
    48   25   26 1    
    49   25   27 1    
    50   25   87 1    
    51   26   88 1    
    52   26   89 1    
    53   26   90 1    
    54   27   28 am   BACKBONE|DICT|INTERRES
    55   27   91 1    
    56   28   29 2    
    57   28   30 1    
    58   30   31 1    
    59   30   32 1    
    60   30   92 1    
    61   31   93 1    
    62   31   94 1    
    63   31   95 1    
    64   32   33 am   BACKBONE|DICT|INTERRES
    65   32   96 1    
    66   33   34 2    
    67   33   35 1    
    68   35   36 1    
    69   35   37 1    
    70   35   97 1    
    71   36   98 1    
    72   36   99 1    
    73   36  100 1    
    74   37   38 am   BACKBONE|DICT|INTERRES
    75   37  101 1    
    76   38   39 2    
    77   38   40 1    
    78   40   41 1    
    79   40   42 1    
    80   40  102 1    
    81   41  103 1    
    82   41  104 1    
    83   41  105 1    
    84   42   43 am   BACKBONE|DICT|INTERRES
    85   42  106 1    
    86   43   44 2    
    87   43   45 1    
    88   45   46 1    
    89   45   49 1    
    90   45  107 1    
    91   46   47 1    
    92   46  108 1    
    93   46  109 1    
    94   47   48 1    
    95   48  110 1    
    96   48  111 1    
    97   49   50 am   BACKBONE|DICT|INTERRES
    98   49  112 1    
    99   50   51 2    
   100   50   52 1    
   101   52   53 1    
   102   52   54 1    
   103   52  113 1    
   104   53  114 1    
   105   53  115 1    
   106   53  116 1    
   107   54   55 am   BACKBONE|DICT|INTERRES
   108   54  117 1    
   109   55   56 2    
   110   55   57 1    
   111   57   58 1    
   112   57   59 1    
   113   57  118 1    
   114   58  119 1    
   115   58  120 1    
   116   58  121 1    
   117   59   60 am   BACKBONE|DICT|INTERRES
   118   59  122 1    
   119   60   61 2    
   120   60   62 1    
   121   62   63 1    
   122   62   64 1    
   123   62  123 1    
   124   63  124 1    
   125   63  125 1    
   126   63  126 1    
   127   64   65 am   BACKBONE|DICT|INTERRES
   128   64  127 1    
   129   65   66 2    
@<TRIPOS>SUBSTRUCTURE
     1 UNK         1 GROUP             0       ****    0 ROOT    
