@<TRIPOS>MOLECULE
3R134
127   129    1
SMALL
USER_CHARGES


@<TRIPOS>ATOM
      1 CA         36.5614  -44.3390  -48.1039 C.3       0 UNK        -0.1968 
      2 C          35.9024  -44.6753  -49.4338 C.2       0 UNK         0.4852 
      3 O          36.5785  -44.6904  -50.4638 O.2       0 UNK        -0.5359 
      4 N          34.5887  -44.9369  -49.4205 N.am      1 UNK        -0.4300 
      5 CA         33.8036  -45.3442  -50.5877 C.3       1 UNK         0.0863 
      6 C6         32.2878  -45.1592  -50.3207 C.3       11 UNK        -0.0953 
      7 S7         31.2906  -45.2408  -51.8418 S.3       11 UNK        -0.2369 
      8 C8         31.2239  -43.4900  -52.3260 C.3       11 UNK         0.0226 
      9 C9         30.8714  -43.3698  -53.7986 C.ar      11 UNK        -0.0699 
     10 C10        31.8377  -43.6772  -54.7591 C.ar      11 UNK        -0.0804 
     11 C11        31.5230  -43.6354  -56.1176 C.ar      11 UNK        -0.0871 
     12 C12        30.2384  -43.2599  -56.5136 C.ar      11 UNK        -0.1008 
     13 C13        29.2651  -42.9187  -55.5663 C.ar      11 UNK        -0.0735 
     14 C14        29.5891  -42.9847  -54.2058 C.ar      11 UNK        -0.0945 
     15 C15        27.8482  -42.5404  -55.9926 C.3       11 UNK         0.0169 
     16 S16        27.7863  -41.6041  -57.5612 S.3       11 UNK        -0.2669 
     17 C17        26.0627  -41.8675  -58.1096 C.3       11 UNK        -0.0850 
     18 CA         25.8318  -43.1424  -58.9787 C.3       10 UNK         0.0855 
     19 C          26.7176  -43.2238  -60.2513 C.2       10 UNK         0.5543 
     20 N          26.5866  -42.2672  -61.1603 N.am      10 UNK        -0.7343 
     21 O          27.5168  -44.1428  -60.4268 O.2       10 UNK        -0.5027 
     22 N          25.9158  -44.3759  -58.1904 N.am      10 UNK        -0.4495 
     23 C          24.9761  -44.8101  -57.3456 C.2       10 UNK         0.4903 
     24 O          23.9144  -44.2153  -57.1506 O.2       10 UNK        -0.4860 
     25 CA         25.2824  -46.0979  -56.5581 C.3       9 UNK         0.0227 
     26 CB         24.0024  -46.7836  -56.0320 C.3       9 UNK        -0.1964 
     27 N          26.1281  -47.0632  -57.2698 N.am      9 UNK        -0.4231 
     28 C          25.8382  -47.7258  -58.4003 C.2       9 UNK         0.5014 
     29 O          24.8599  -47.4944  -59.1121 O.2       9 UNK        -0.5270 
     30 CA         26.7778  -48.8900  -58.7681 C.3       8 UNK         0.0284 
     31 CB         27.9980  -48.3879  -59.5574 C.3       8 UNK        -0.1977 
     32 N          27.2139  -49.6509  -57.5896 N.am      8 UNK        -0.4342 
     33 C          26.3923  -50.3634  -56.8013 C.2       8 UNK         0.5039 
     34 O          25.2012  -50.5550  -57.0502 O.2       8 UNK        -0.5547 
     35 CA         26.9826  -50.9462  -55.5057 C.3       7 UNK         0.0281 
     36 CB         27.6422  -52.3091  -55.7698 C.3       7 UNK        -0.1963 
     37 N          27.9363  -50.0430  -54.8559 N.am      7 UNK        -0.4444 
     38 C          27.6082  -48.8795  -54.2728 C.2       7 UNK         0.5104 
     39 O          26.4526  -48.4764  -54.1501 O.2       7 UNK        -0.5100 
     40 CA         28.7642  -48.0010  -53.7610 C.3       6 UNK         0.0396 
     41 CB         29.1984  -48.4560  -52.3588 C.3       6 UNK        -0.1801 
     42 N          29.9187  -48.0018  -54.6626 N.am      6 UNK        -0.4747 
     43 C          29.9054  -47.5669  -55.9322 C.2       6 UNK         0.5012 
     44 O          28.9252  -47.0377  -56.4581 O.2       6 UNK        -0.5003 
     45 CA         31.1574  -47.8716  -56.7821 C.3       5 UNK         0.0782 
     46 C46        32.2590  -46.7873  -56.6724 C.3       11 UNK        -0.0868 
     47 S47        32.1296  -45.5593  -58.0143 S.3       11 UNK        -0.2515 
     48 C48        32.5627  -44.0126  -57.1601 C.3       11 UNK         0.0199 
     49 N          31.6857  -49.2015  -56.4751 N.am      5 UNK        -0.4607 
     50 C          31.1288  -50.3460  -56.8874 C.2       4 UNK         0.5031 
     51 O          30.1121  -50.3983  -57.5788 O.2       4 UNK        -0.5119 
     52 CA         31.8071  -51.6476  -56.4279 C.3       4 UNK         0.0263 
     53 CB         32.9421  -52.0322  -57.3899 C.3       4 UNK        -0.1967 
     54 N          32.3287  -51.5630  -55.0601 N.am      4 UNK        -0.4237 
     55 C          31.5534  -51.4640  -53.9714 C.2       3 UNK         0.4908 
     56 O          30.3240  -51.4650  -54.0088 O.2       3 UNK        -0.5102 
     57 CA         32.2620  -51.3011  -52.6163 C.3       3 UNK         0.0241 
     58 CB         32.6664  -52.6727  -52.0522 C.3       3 UNK        -0.1971 
     59 N          33.4307  -50.4125  -52.6387 N.am      3 UNK        -0.4139 
     60 C          33.4134  -49.1275  -53.0192 C.2       2 UNK         0.5016 
     61 O          32.4355  -48.5695  -53.5196 O.2       2 UNK        -0.5319 
     62 CA         34.7160  -48.3333  -52.8501 C.3       2 UNK         0.0286 
     63 CB         35.4182  -48.1592  -54.2064 C.3       2 UNK        -0.1963 
     64 N          34.4383  -47.0141  -52.2790 N.am      2 UNK        -0.4790 
     65 C          34.1592  -46.7935  -50.9873 C.2       1 UNK         0.5024 
     66 O          34.1753  -47.6750  -50.1240 O.2       1 UNK        -0.4888 
     67 H67        35.8475  -44.3485  -47.2804 H         1 UNK         0.0892 
     68 H68        37.3457  -45.0618  -47.8808 H         1 UNK         0.0892 
     69 H69        37.0131  -43.3484  -48.1490 H         1 UNK         0.0892 
     70 H70        34.0953  -44.9415  -48.5393 H         1 UNK         0.3107 
     71 H71        34.0843  -44.6798  -51.4084 H         1 UNK         0.0773 
     72 H72        32.1015  -44.1949  -49.8449 H         1 UNK         0.0680 
     73 H73        31.9196  -45.9126  -49.6217 H         1 UNK         0.0680 
     74 H74        32.1909  -43.0176  -52.1464 H         1 UNK         0.0650 
     75 H75        30.4972  -42.9673  -51.7024 H         1 UNK         0.0650 
     76 H76        32.8266  -43.9796  -54.4429 H         1 UNK         0.1397 
     77 H77        29.9984  -43.2521  -57.5679 H         1 UNK         0.1363 
     78 H78        28.8385  -42.7536  -53.4623 H         1 UNK         0.1355 
     79 H79        27.2771  -43.4623  -56.0831 H         1 UNK         0.0707 
     80 H80        27.3610  -41.9465  -55.2178 H         1 UNK         0.0707 
     81 H81        25.4071  -41.8755  -57.2376 H         1 UNK         0.1034 
     82 H82        25.7637  -40.9844  -58.6760 H         1 UNK         0.1034 
     83 H83        24.8097  -43.0950  -59.3602 H         1 UNK         0.0482 
     84 H84        27.1544  -42.3040  -61.9924 H         1 UNK         0.3460 
     85 H85        25.9339  -41.5097  -61.0339 H         1 UNK         0.3460 
     86 H86        26.7485  -44.9278  -58.3494 H         1 UNK         0.2989 
     87 H87        25.8648  -45.7861  -55.6899 H         1 UNK         0.0559 
     88 H88        23.4536  -46.1268  -55.3560 H         1 UNK         0.0848 
     89 H89        24.2361  -47.6924  -55.4777 H         1 UNK         0.0848 
     90 H90        23.3265  -47.0538  -56.8440 H         1 UNK         0.0848 
     91 H91        27.0186  -47.2707  -56.8238 H         1 UNK         0.3144 
     92 H92        26.2201  -49.5740  -59.4112 H         1 UNK         0.0727 
     93 H93        28.6532  -49.2111  -59.8429 H         1 UNK         0.0790 
     94 H94        28.5884  -47.6717  -58.9869 H         1 UNK         0.0790 
     95 H95        27.6854  -47.8878  -60.4751 H         1 UNK         0.0790 
     96 H96        28.2020  -49.6234  -57.3607 H         1 UNK         0.3215 
     97 H97        26.1539  -51.1046  -54.8120 H         1 UNK         0.0863 
     98 H98        27.9926  -52.7658  -54.8441 H         1 UNK         0.0808 
     99 H99        28.4938  -52.2245  -56.4444 H         1 UNK         0.0808 
    100 H100       26.9340  -53.0026  -56.2250 H         1 UNK         0.0808 
    101 H101       28.9042  -50.3487  -54.8159 H         1 UNK         0.3118 
    102 H102       28.4051  -46.9720  -53.6919 H         1 UNK         0.0546 
    103 H103       29.5078  -49.5006  -52.3501 H         1 UNK         0.0828 
    104 H104       28.3789  -48.3536  -51.6467 H         1 UNK         0.0828 
    105 H105       30.0313  -47.8631  -51.9839 H         1 UNK         0.0828 
    106 H106       30.7930  -48.3651  -54.2845 H         1 UNK         0.3005 
    107 H107       30.8187  -47.9100  -57.8204 H         1 UNK         0.1257 
    108 H108       33.2484  -47.2352  -56.7748 H         1 UNK         0.0775 
    109 H109       32.2572  -46.3108  -55.6908 H         1 UNK         0.0775 
    110 H110       33.5528  -44.1131  -56.7126 H         1 UNK         0.0840 
    111 H111       32.6388  -43.2109  -57.8960 H         1 UNK         0.0840 
    112 H112       32.4713  -49.2399  -55.8422 H         1 UNK         0.2987 
    113 H113       31.0549  -52.4391  -56.4552 H         1 UNK         0.0785 
    114 H114       32.5722  -52.1196  -58.4126 H         1 UNK         0.0798 
    115 H115       33.3796  -52.9944  -57.1228 H         1 UNK         0.0798 
    116 H116       33.7404  -51.2890  -57.3947 H         1 UNK         0.0798 
    117 H117       33.3316  -51.5604  -54.9439 H         1 UNK         0.3079 
    118 H118       31.5390  -50.8565  -51.9295 H         1 UNK         0.0794 
    119 H119       33.0568  -52.5858  -51.0380 H         1 UNK         0.0786 
    120 H120       33.4282  -53.1554  -52.6659 H         1 UNK         0.0786 
    121 H121       31.8083  -53.3453  -52.0090 H         1 UNK         0.0786 
    122 H122       34.2856  -50.7918  -52.2573 H         1 UNK         0.3032 
    123 H123       35.3852  -48.8742  -52.1769 H         1 UNK         0.1094 
    124 H124       36.3642  -47.6286  -54.0964 H         1 UNK         0.0794 
    125 H125       35.6415  -49.1259  -54.6599 H         1 UNK         0.0794 
    126 H126       34.8026  -47.6010  -54.9122 H         1 UNK         0.0794 
    127 H127       34.3573  -46.2493  -52.9326 H         1 UNK         0.3016 
@<TRIPOS>BOND
     1    1    2 1    
     2    1   67 1    
     3    1   68 1    
     4    1   69 1    
     5    2    3 2    
     6    2    4 am   BACKBONE|DICT|INTERRES
     7    4    5 1    
     8    4   70 1    
     9    5    6 1    
    10    5   65 1    
    11    5   71 1    
    12    6    7 1    
    13    6   72 1    
    14    6   73 1    
    15    7    8 1    
    16    8    9 1    
    17    8   74 1    
    18    8   75 1    
    19    9   10 ar   
    20    9   14 ar   
    21   10   11 ar   
    22   10   76 1    
    23   11   12 ar   
    24   11   48 1    
    25   12   13 ar   
    26   12   77 1    
    27   13   14 ar   
    28   13   15 1    
    29   14   78 1    
    30   15   16 1    
    31   15   79 1    
    32   15   80 1    
    33   16   17 1    
    34   17   18 1    
    35   17   81 1    
    36   17   82 1    
    37   18   19 1    
    38   18   22 1    
    39   18   83 1    
    40   19   20 am   BACKBONE|DICT|INTERRES
    41   19   21 2    
    42   20   84 1    
    43   20   85 1    
    44   22   23 am   BACKBONE|DICT|INTERRES
    45   22   86 1    
    46   23   24 2    
    47   23   25 1    
    48   25   26 1    
    49   25   27 1    
    50   25   87 1    
    51   26   88 1    
    52   26   89 1    
    53   26   90 1    
    54   27   28 am   BACKBONE|DICT|INTERRES
    55   27   91 1    
    56   28   29 2    
    57   28   30 1    
    58   30   31 1    
    59   30   32 1    
    60   30   92 1    
    61   31   93 1    
    62   31   94 1    
    63   31   95 1    
    64   32   33 am   BACKBONE|DICT|INTERRES
    65   32   96 1    
    66   33   34 2    
    67   33   35 1    
    68   35   36 1    
    69   35   37 1    
    70   35   97 1    
    71   36   98 1    
    72   36   99 1    
    73   36  100 1    
    74   37   38 am   BACKBONE|DICT|INTERRES
    75   37  101 1    
    76   38   39 2    
    77   38   40 1    
    78   40   41 1    
    79   40   42 1    
    80   40  102 1    
    81   41  103 1    
    82   41  104 1    
    83   41  105 1    
    84   42   43 am   BACKBONE|DICT|INTERRES
    85   42  106 1    
    86   43   44 2    
    87   43   45 1    
    88   45   46 1    
    89   45   49 1    
    90   45  107 1    
    91   46   47 1    
    92   46  108 1    
    93   46  109 1    
    94   47   48 1    
    95   48  110 1    
    96   48  111 1    
    97   49   50 am   BACKBONE|DICT|INTERRES
    98   49  112 1    
    99   50   51 2    
   100   50   52 1    
   101   52   53 1    
   102   52   54 1    
   103   52  113 1    
   104   53  114 1    
   105   53  115 1    
   106   53  116 1    
   107   54   55 am   BACKBONE|DICT|INTERRES
   108   54  117 1    
   109   55   56 2    
   110   55   57 1    
   111   57   58 1    
   112   57   59 1    
   113   57  118 1    
   114   58  119 1    
   115   58  120 1    
   116   58  121 1    
   117   59   60 am   BACKBONE|DICT|INTERRES
   118   59  122 1    
   119   60   61 2    
   120   60   62 1    
   121   62   63 1    
   122   62   64 1    
   123   62  123 1    
   124   63  124 1    
   125   63  125 1    
   126   63  126 1    
   127   64   65 am   BACKBONE|DICT|INTERRES
   128   64  127 1    
   129   65   66 2    
@<TRIPOS>SUBSTRUCTURE
     1 UNK         1 GROUP             0       ****    0 ROOT    
