@<TRIPOS>MOLECULE
3R134
127   129    1
SMALL
USER_CHARGES


@<TRIPOS>ATOM
      1 CA         29.5976  -45.4676  -52.5067 C.3       0 UNK        -0.1968 
      2 C          30.8507  -45.4043  -51.6525 C.2       0 UNK         0.4852 
      3 O          30.8443  -45.8730  -50.5136 O.2       0 UNK        -0.5359 
      4 N          31.9203  -44.8098  -52.1946 N.am      1 UNK        -0.4300 
      5 CA         33.1733  -44.5458  -51.4771 C.3       1 UNK         0.0863 
      6 C6         33.9566  -43.3527  -52.0795 C.3       11 UNK        -0.0953 
      7 S7         32.9107  -41.8615  -52.2512 S.3       11 UNK        -0.2369 
      8 C8         32.9236  -41.5515  -54.0474 C.3       11 UNK         0.0226 
      9 C9         32.3879  -42.7206  -54.8655 C.ar      11 UNK        -0.0699 
     10 C10        33.2810  -43.5766  -55.5164 C.ar      11 UNK        -0.0804 
     11 C11        32.8142  -44.6331  -56.3012 C.ar      11 UNK        -0.0871 
     12 C12        31.4378  -44.8246  -56.4429 C.ar      11 UNK        -0.1008 
     13 C13        30.5324  -43.9795  -55.7969 C.ar      11 UNK        -0.0735 
     14 C14        31.0108  -42.9281  -55.0061 C.ar      11 UNK        -0.0945 
     15 C15        29.0404  -44.2153  -55.9633 C.3       11 UNK         0.0169 
     16 S16        28.3651  -43.2010  -57.3161 S.3       11 UNK        -0.2669 
     17 C17        27.2210  -42.0906  -56.4170 C.3       11 UNK        -0.0850 
     18 CA         25.7280  -42.4938  -56.5670 C.3       10 UNK         0.0855 
     19 C          25.1328  -42.0450  -57.9363 C.2       10 UNK         0.5543 
     20 N          24.6412  -42.9384  -58.7869 N.am      10 UNK        -0.7343 
     21 O          25.1027  -40.8510  -58.2248 O.2       10 UNK        -0.5027 
     22 N          25.5210  -43.9108  -56.2337 N.am      10 UNK        -0.4495 
     23 C          24.3598  -44.4657  -55.8700 C.2       10 UNK         0.4903 
     24 O          23.3368  -43.8185  -55.6409 O.2       10 UNK        -0.4860 
     25 CA         24.3458  -46.0051  -55.7476 C.3       9 UNK         0.0227 
     26 CB         22.9277  -46.5950  -55.8959 C.3       9 UNK        -0.1964 
     27 N          25.2792  -46.6940  -56.6536 N.am      9 UNK        -0.4231 
     28 C          25.3215  -46.6096  -57.9957 C.2       9 UNK         0.5014 
     29 O          24.5955  -45.8638  -58.6542 O.2       9 UNK        -0.5270 
     30 CA         26.3543  -47.4770  -58.7434 C.3       8 UNK         0.0284 
     31 CB         27.5416  -46.6144  -59.2020 C.3       8 UNK        -0.1977 
     32 N          26.8538  -48.6094  -57.9589 N.am      8 UNK        -0.4342 
     33 C          26.1198  -49.6807  -57.6168 C.2       8 UNK         0.5039 
     34 O          24.9774  -49.8798  -58.0316 O.2       8 UNK        -0.5547 
     35 CA         26.7353  -50.6912  -56.6257 C.3       7 UNK         0.0281 
     36 CB         27.2263  -51.9425  -57.3720 C.3       7 UNK        -0.1963 
     37 N          27.8358  -50.1594  -55.8157 N.am      7 UNK        -0.4444 
     38 C          27.7764  -49.0934  -55.0049 C.2       7 UNK         0.5104 
     39 O          26.7459  -48.4570  -54.7829 O.2       7 UNK        -0.5100 
     40 CA         29.1041  -48.6041  -54.4004 C.3       6 UNK         0.0396 
     41 CB         29.2553  -49.1219  -52.9620 C.3       6 UNK        -0.1801 
     42 N          30.3047  -48.9509  -55.1729 N.am      6 UNK        -0.4747 
     43 C          30.5260  -48.6543  -56.4641 C.2       6 UNK         0.5012 
     44 O          29.7183  -48.0322  -57.1560 O.2       6 UNK        -0.5003 
     45 CA         31.8062  -49.1986  -57.1271 C.3       5 UNK         0.0782 
     46 C46        32.7446  -48.0842  -57.6529 C.3       11 UNK        -0.0868 
     47 S47        33.7331  -47.2464  -56.3646 S.3       11 UNK        -0.2515 
     48 C48        33.8023  -45.5468  -57.0102 C.3       11 UNK         0.0199 
     49 N          32.5123  -50.1691  -56.2816 N.am      5 UNK        -0.4607 
     50 C          32.7823  -51.4317  -56.6392 C.2       4 UNK         0.5031 
     51 O          32.4238  -51.9316  -57.7060 O.2       4 UNK        -0.5119 
     52 CA         33.6022  -52.2937  -55.6614 C.3       4 UNK         0.0263 
     53 CB         35.0869  -52.2822  -56.0607 C.3       4 UNK        -0.1967 
     54 N          33.4824  -51.8839  -54.2615 N.am      4 UNK        -0.4237 
     55 C          32.3701  -51.9875  -53.5213 C.2       3 UNK         0.4908 
     56 O          31.3169  -52.4773  -53.9292 O.2       3 UNK        -0.5102 
     57 CA         32.4345  -51.4323  -52.0863 C.3       3 UNK         0.0241 
     58 CB         32.7198  -52.5659  -51.0878 C.3       3 UNK        -0.1971 
     59 N          33.4100  -50.3518  -51.8839 N.am      3 UNK        -0.4139 
     60 C          33.4006  -49.1767  -52.5274 C.2       2 UNK         0.5016 
     61 O          32.6255  -48.9057  -53.4477 O.2       2 UNK        -0.5319 
     62 CA         34.4428  -48.1423  -52.0948 C.3       2 UNK         0.0286 
     63 CB         35.6891  -48.1986  -52.9940 C.3       2 UNK        -0.1963 
     64 N          33.8236  -46.8236  -52.1783 N.am      2 UNK        -0.4790 
     65 C          34.0648  -45.8000  -51.3489 C.2       1 UNK         0.5024 
     66 O          34.9428  -45.8230  -50.4849 O.2       1 UNK        -0.4888 
     67 H67        29.0231  -44.5479  -52.4005 H         1 UNK         0.0892 
     68 H68        29.8573  -45.5952  -53.5552 H         1 UNK         0.0892 
     69 H69        28.9650  -46.3006  -52.2032 H         1 UNK         0.0892 
     70 H70        31.8673  -44.4284  -53.1300 H         1 UNK         0.3107 
     71 H71        32.9080  -44.2623  -50.4559 H         1 UNK         0.0773 
     72 H72        34.3985  -43.6201  -53.0386 H         1 UNK         0.0680 
     73 H73        34.7953  -43.0918  -51.4315 H         1 UNK         0.0680 
     74 H74        32.3231  -40.6639  -54.2518 H         1 UNK         0.0650 
     75 H75        33.9408  -41.3034  -54.3546 H         1 UNK         0.0650 
     76 H76        34.3457  -43.4129  -55.4190 H         1 UNK         0.1397 
     77 H77        31.0678  -45.6327  -57.0579 H         1 UNK         0.1363 
     78 H78        30.3137  -42.2645  -54.5125 H         1 UNK         0.1355 
     79 H79        28.8526  -45.2670  -56.1867 H         1 UNK         0.0707 
     80 H80        28.5237  -44.0176  -55.0239 H         1 UNK         0.0707 
     81 H81        27.4857  -42.0631  -55.3596 H         1 UNK         0.1034 
     82 H82        27.3853  -41.0695  -56.7671 H         1 UNK         0.1034 
     83 H83        25.1770  -41.9144  -55.8236 H         1 UNK         0.0482 
     84 H84        24.6515  -43.9320  -58.5768 H         1 UNK         0.3460 
     85 H85        24.2564  -42.6204  -59.6616 H         1 UNK         0.3460 
     86 H86        26.3005  -44.5184  -56.4348 H         1 UNK         0.2989 
     87 H87        24.6908  -46.2285  -54.7371 H         1 UNK         0.0559 
     88 H88        22.4949  -46.3630  -56.8697 H         1 UNK         0.0848 
     89 H89        22.2535  -46.1972  -55.1365 H         1 UNK         0.0848 
     90 H90        22.9359  -47.6791  -55.7828 H         1 UNK         0.0848 
     91 H91        25.9149  -47.3396  -56.1928 H         1 UNK         0.3144 
     92 H92        25.8599  -47.8746  -59.6322 H         1 UNK         0.0727 
     93 H93        28.0839  -46.1908  -58.3567 H         1 UNK         0.0790 
     94 H94        27.2056  -45.7816  -59.8216 H         1 UNK         0.0790 
     95 H95        28.2491  -47.1945  -59.7946 H         1 UNK         0.0790 
     96 H96        27.7998  -48.5242  -57.5977 H         1 UNK         0.3215 
     97 H97        25.9406  -50.9886  -55.9384 H         1 UNK         0.0863 
     98 H98        27.5742  -52.7089  -56.6790 H         1 UNK         0.0808 
     99 H99        28.0438  -51.7097  -58.0558 H         1 UNK         0.0808 
    100 H100       26.4232  -52.3850  -57.9633 H         1 UNK         0.0808 
    101 H101       28.7344  -50.6071  -55.9234 H         1 UNK         0.3118 
    102 H102       29.0460  -47.5174  -54.3790 H         1 UNK         0.0546 
    103 H103       30.1199  -48.6797  -52.4673 H         1 UNK         0.0828 
    104 H104       29.3694  -50.2061  -52.9371 H         1 UNK         0.0828 
    105 H105       28.3799  -48.8726  -52.3605 H         1 UNK         0.0828 
    106 H106       31.0629  -49.3697  -54.6460 H         1 UNK         0.3005 
    107 H107       31.4262  -49.7126  -58.0130 H         1 UNK         0.1257 
    108 H108       33.4507  -48.5220  -58.3600 H         1 UNK         0.0775 
    109 H109       32.1768  -47.3536  -58.2313 H         1 UNK         0.0775 
    110 H110       34.8214  -45.1796  -56.8805 H         1 UNK         0.0840 
    111 H111       33.6163  -45.5305  -58.0848 H         1 UNK         0.0840 
    112 H112       32.8449  -49.8180  -55.3907 H         1 UNK         0.2987 
    113 H113       33.2332  -53.3185  -55.7428 H         1 UNK         0.0785 
    114 H114       35.5181  -51.2830  -55.9836 H         1 UNK         0.0798 
    115 H115       35.2161  -52.6135  -57.0921 H         1 UNK         0.0798 
    116 H116       35.6735  -52.9525  -55.4321 H         1 UNK         0.0798 
    117 H117       34.2985  -51.4688  -53.8369 H         1 UNK         0.3079 
    118 H118       31.4488  -51.0224  -51.8587 H         1 UNK         0.0794 
    119 H119       33.7106  -52.9969  -51.2377 H         1 UNK         0.0786 
    120 H120       31.9938  -53.3735  -51.1950 H         1 UNK         0.0786 
    121 H121       32.6575  -52.2141  -50.0578 H         1 UNK         0.0786 
    122 H122       34.0944  -50.5002  -51.1558 H         1 UNK         0.3032 
    123 H123       34.7305  -48.3475  -51.0609 H         1 UNK         0.1094 
    124 H124       36.4306  -47.4603  -52.6885 H         1 UNK         0.0794 
    125 H125       36.1664  -49.1778  -52.9428 H         1 UNK         0.0794 
    126 H126       35.4416  -48.0093  -54.0386 H         1 UNK         0.0794 
    127 H127       33.0625  -46.7601  -52.8433 H         1 UNK         0.3016 
@<TRIPOS>BOND
     1    1    2 1    
     2    1   67 1    
     3    1   68 1    
     4    1   69 1    
     5    2    3 2    
     6    2    4 am   BACKBONE|DICT|INTERRES
     7    4    5 1    
     8    4   70 1    
     9    5    6 1    
    10    5   65 1    
    11    5   71 1    
    12    6    7 1    
    13    6   72 1    
    14    6   73 1    
    15    7    8 1    
    16    8    9 1    
    17    8   74 1    
    18    8   75 1    
    19    9   10 ar   
    20    9   14 ar   
    21   10   11 ar   
    22   10   76 1    
    23   11   12 ar   
    24   11   48 1    
    25   12   13 ar   
    26   12   77 1    
    27   13   14 ar   
    28   13   15 1    
    29   14   78 1    
    30   15   16 1    
    31   15   79 1    
    32   15   80 1    
    33   16   17 1    
    34   17   18 1    
    35   17   81 1    
    36   17   82 1    
    37   18   19 1    
    38   18   22 1    
    39   18   83 1    
    40   19   20 am   BACKBONE|DICT|INTERRES
    41   19   21 2    
    42   20   84 1    
    43   20   85 1    
    44   22   23 am   BACKBONE|DICT|INTERRES
    45   22   86 1    
    46   23   24 2    
    47   23   25 1    
    48   25   26 1    
    49   25   27 1    
    50   25   87 1    
    51   26   88 1    
    52   26   89 1    
    53   26   90 1    
    54   27   28 am   BACKBONE|DICT|INTERRES
    55   27   91 1    
    56   28   29 2    
    57   28   30 1    
    58   30   31 1    
    59   30   32 1    
    60   30   92 1    
    61   31   93 1    
    62   31   94 1    
    63   31   95 1    
    64   32   33 am   BACKBONE|DICT|INTERRES
    65   32   96 1    
    66   33   34 2    
    67   33   35 1    
    68   35   36 1    
    69   35   37 1    
    70   35   97 1    
    71   36   98 1    
    72   36   99 1    
    73   36  100 1    
    74   37   38 am   BACKBONE|DICT|INTERRES
    75   37  101 1    
    76   38   39 2    
    77   38   40 1    
    78   40   41 1    
    79   40   42 1    
    80   40  102 1    
    81   41  103 1    
    82   41  104 1    
    83   41  105 1    
    84   42   43 am   BACKBONE|DICT|INTERRES
    85   42  106 1    
    86   43   44 2    
    87   43   45 1    
    88   45   46 1    
    89   45   49 1    
    90   45  107 1    
    91   46   47 1    
    92   46  108 1    
    93   46  109 1    
    94   47   48 1    
    95   48  110 1    
    96   48  111 1    
    97   49   50 am   BACKBONE|DICT|INTERRES
    98   49  112 1    
    99   50   51 2    
   100   50   52 1    
   101   52   53 1    
   102   52   54 1    
   103   52  113 1    
   104   53  114 1    
   105   53  115 1    
   106   53  116 1    
   107   54   55 am   BACKBONE|DICT|INTERRES
   108   54  117 1    
   109   55   56 2    
   110   55   57 1    
   111   57   58 1    
   112   57   59 1    
   113   57  118 1    
   114   58  119 1    
   115   58  120 1    
   116   58  121 1    
   117   59   60 am   BACKBONE|DICT|INTERRES
   118   59  122 1    
   119   60   61 2    
   120   60   62 1    
   121   62   63 1    
   122   62   64 1    
   123   62  123 1    
   124   63  124 1    
   125   63  125 1    
   126   63  126 1    
   127   64   65 am   BACKBONE|DICT|INTERRES
   128   64  127 1    
   129   65   66 2    
@<TRIPOS>SUBSTRUCTURE
     1 UNK         1 GROUP             0       ****    0 ROOT    
