@<TRIPOS>MOLECULE
3R134
127   129    1
SMALL
USER_CHARGES


@<TRIPOS>ATOM
      1 CA         35.4033  -44.0527  -49.1207 C.3       0 UNK        -0.1968 
      2 C          35.0571  -44.8606  -50.3637 C.2       0 UNK         0.4852 
      3 O          34.0840  -45.6148  -50.3406 O.2       0 UNK        -0.5359 
      4 N          35.8450  -44.6924  -51.4366 N.am      1 UNK        -0.4300 
      5 CA         35.7585  -45.3853  -52.7300 C.3       1 UNK         0.0863 
      6 C6         34.3535  -45.2766  -53.3895 C.3       11 UNK        -0.0953 
      7 S7         34.4033  -45.3814  -55.2110 S.3       11 UNK        -0.2369 
      8 C8         32.7490  -46.0417  -55.5826 C.3       11 UNK         0.0226 
      9 C9         31.6738  -44.9723  -55.4654 C.ar      11 UNK        -0.0699 
     10 C10        31.0438  -44.7255  -54.2421 C.ar      11 UNK        -0.0804 
     11 C11        30.0443  -43.7495  -54.1386 C.ar      11 UNK        -0.0871 
     12 C12        29.6856  -43.0152  -55.2745 C.ar      11 UNK        -0.1008 
     13 C13        30.3122  -43.2514  -56.5016 C.ar      11 UNK        -0.0735 
     14 C14        31.3045  -44.2306  -56.5896 C.ar      11 UNK        -0.0945 
     15 C15        29.9483  -42.4361  -57.7328 C.3       11 UNK         0.0169 
     16 S16        28.6942  -43.2768  -58.7492 S.3       11 UNK        -0.2669 
     17 C17        27.1293  -42.6477  -58.0445 C.3       11 UNK        -0.0850 
     18 CA         26.4292  -43.6396  -57.0676 C.3       10 UNK         0.0855 
     19 C          25.1347  -43.0501  -56.4314 C.2       10 UNK         0.5543 
     20 N          25.2007  -41.8451  -55.8798 N.am      10 UNK        -0.7343 
     21 O          24.0759  -43.6750  -56.3956 O.2       10 UNK        -0.5027 
     22 N          26.2346  -44.9865  -57.6248 N.am      10 UNK        -0.4495 
     23 C          25.5655  -45.3309  -58.7328 C.2       10 UNK         0.4903 
     24 O          25.0484  -44.5282  -59.5121 O.2       10 UNK        -0.4860 
     25 CA         25.4481  -46.8463  -58.9952 C.3       9 UNK         0.0227 
     26 CB         25.0180  -47.1906  -60.4374 C.3       9 UNK        -0.1964 
     27 N          26.6581  -47.5775  -58.5985 N.am      9 UNK        -0.4231 
     28 C          27.8831  -47.5086  -59.1427 C.2       9 UNK         0.5014 
     29 O          28.1527  -46.8785  -60.1658 O.2       9 UNK        -0.5270 
     30 CA         29.0152  -48.2627  -58.4154 C.3       8 UNK         0.0284 
     31 CB         29.8935  -47.2751  -57.6323 C.3       8 UNK        -0.1977 
     32 N          28.5426  -49.3006  -57.4950 N.am      8 UNK        -0.4342 
     33 C          27.9805  -50.4592  -57.8660 C.2       8 UNK         0.5039 
     34 O          27.8518  -50.8183  -59.0368 O.2       8 UNK        -0.5547 
     35 CA         27.4386  -51.3493  -56.7369 C.3       7 UNK         0.0281 
     36 CB         28.5593  -52.2088  -56.1281 C.3       7 UNK        -0.1963 
     37 N          26.7893  -50.5558  -55.6893 N.am      7 UNK        -0.4444 
     38 C          25.5725  -50.0038  -55.8058 C.2       7 UNK         0.5104 
     39 O          24.8465  -50.1484  -56.7889 O.2       7 UNK        -0.5100 
     40 CA         25.0876  -49.1215  -54.6408 C.3       6 UNK         0.0396 
     41 CB         24.3457  -49.9708  -53.5971 C.3       6 UNK        -0.1801 
     42 N          26.1686  -48.3801  -53.9862 N.am      6 UNK        -0.4747 
     43 C          26.8713  -47.3920  -54.5602 C.2       6 UNK         0.5012 
     44 O          26.6621  -46.9793  -55.6989 O.2       6 UNK        -0.5003 
     45 CA         28.0448  -46.8101  -53.7496 C.3       5 UNK         0.0782 
     46 C46        27.5676  -45.6237  -52.8767 C.3       11 UNK        -0.0868 
     47 S47        28.9013  -44.9201  -51.8493 S.3       11 UNK        -0.2515 
     48 C48        29.3824  -43.4387  -52.7986 C.3       11 UNK         0.0199 
     49 N          28.7516  -47.8411  -52.9773 N.am      5 UNK        -0.4607 
     50 C          29.3805  -48.8899  -53.5193 C.2       4 UNK         0.5031 
     51 O          29.3713  -49.1432  -54.7268 O.2       4 UNK        -0.5119 
     52 CA         30.0870  -49.8496  -52.5507 C.3       4 UNK         0.0263 
     53 CB         29.1623  -51.0258  -52.1972 C.3       4 UNK        -0.1967 
     54 N          31.3186  -50.3641  -53.1496 N.am      4 UNK        -0.4237 
     55 C          32.4145  -49.6214  -53.3445 C.2       3 UNK         0.4908 
     56 O          32.5546  -48.4767  -52.9070 O.2       3 UNK        -0.5102 
     57 CA         33.5224  -50.2549  -54.1931 C.3       3 UNK         0.0241 
     58 CB         33.0866  -50.3784  -55.6661 C.3       3 UNK        -0.1971 
     59 N          34.7133  -49.4148  -54.1157 N.am      3 UNK        -0.4139 
     60 C          35.9800  -49.8414  -54.0947 C.2       2 UNK         0.5016 
     61 O          36.2991  -51.0300  -54.1545 O.2       2 UNK        -0.5319 
     62 CA         37.0870  -48.7722  -54.0139 C.3       2 UNK         0.0286 
     63 CB         37.9556  -48.7995  -55.2838 C.3       2 UNK        -0.1963 
     64 N          36.5690  -47.4110  -53.8354 N.am      2 UNK        -0.4790 
     65 C          36.2850  -46.8396  -52.6583 C.2       1 UNK         0.5024 
     66 O          36.4526  -47.4081  -51.5769 O.2       1 UNK        -0.4888 
     67 H67        36.2726  -43.4139  -49.2758 H         1 UNK         0.0892 
     68 H68        34.5630  -43.4183  -48.8397 H         1 UNK         0.0892 
     69 H69        35.6190  -44.7215  -48.2878 H         1 UNK         0.0892 
     70 H70        36.6346  -44.0670  -51.3535 H         1 UNK         0.3107 
     71 H71        36.4637  -44.8425  -53.3619 H         1 UNK         0.0773 
     72 H72        33.6781  -46.0334  -52.9878 H         1 UNK         0.0680 
     73 H73        33.9003  -44.3141  -53.1471 H         1 UNK         0.0680 
     74 H74        32.5196  -46.8828  -54.9304 H         1 UNK         0.0650 
     75 H75        32.7610  -46.4443  -56.5963 H         1 UNK         0.0650 
     76 H76        31.3352  -45.2935  -53.3690 H         1 UNK         0.1397 
     77 H77        28.9275  -42.2475  -55.2035 H         1 UNK         0.1363 
     78 H78        31.7923  -44.4144  -57.5371 H         1 UNK         0.1355 
     79 H79        29.6127  -41.4371  -57.4518 H         1 UNK         0.0707 
     80 H80        30.8404  -42.2868  -58.3432 H         1 UNK         0.0707 
     81 H81        27.3275  -41.6954  -57.5525 H         1 UNK         0.1034 
     82 H82        26.4639  -42.4067  -58.8747 H         1 UNK         0.1034 
     83 H83        27.1026  -43.8002  -56.2258 H         1 UNK         0.0482 
     84 H84        26.0557  -41.3134  -55.8666 H         1 UNK         0.3460 
     85 H85        24.3704  -41.4612  -55.4559 H         1 UNK         0.3460 
     86 H86        26.5389  -45.7421  -57.0154 H         1 UNK         0.2989 
     87 H87        24.6606  -47.2029  -58.3295 H         1 UNK         0.0559 
     88 H88        24.0361  -46.7717  -60.6605 H         1 UNK         0.0848 
     89 H89        24.9514  -48.2684  -60.5852 H         1 UNK         0.0848 
     90 H90        25.7134  -46.7913  -61.1760 H         1 UNK         0.0848 
     91 H91        26.5818  -48.0851  -57.7269 H         1 UNK         0.3144 
     92 H92        29.6332  -48.7427  -59.1769 H         1 UNK         0.0727 
     93 H93        29.3202  -46.7352  -56.8779 H         1 UNK         0.0790 
     94 H94        30.3310  -46.5308  -58.2989 H         1 UNK         0.0790 
     95 H95        30.7137  -47.7861  -57.1282 H         1 UNK         0.0790 
     96 H96        28.6860  -49.1316  -56.5014 H         1 UNK         0.3215 
     97 H97        26.6957  -52.0228  -57.1704 H         1 UNK         0.0863 
     98 H98        28.1758  -52.8667  -55.3482 H         1 UNK         0.0808 
     99 H99        29.3543  -51.6009  -55.6959 H         1 UNK         0.0808 
    100 H100       29.0161  -52.8427  -56.8892 H         1 UNK         0.0808 
    101 H101       27.3436  -50.3350  -54.8744 H         1 UNK         0.3118 
    102 H102       24.3828  -48.3941  -55.0497 H         1 UNK         0.0546 
    103 H103       25.0021  -50.7072  -53.1315 H         1 UNK         0.0828 
    104 H104       23.5188  -50.5157  -54.0549 H         1 UNK         0.0828 
    105 H105       23.9227  -49.3498  -52.8074 H         1 UNK         0.0828 
    106 H106       26.4120  -48.6570  -53.0459 H         1 UNK         0.3005 
    107 H107       28.7575  -46.4207  -54.4796 H         1 UNK         0.1257 
    108 H108       26.7685  -45.9408  -52.2037 H         1 UNK         0.0775 
    109 H109       27.1417  -44.8359  -53.5016 H         1 UNK         0.0775 
    110 H110       28.5015  -42.8093  -52.9353 H         1 UNK         0.0840 
    111 H111       30.0827  -42.8567  -52.1984 H         1 UNK         0.0840 
    112 H112       28.8071  -47.6876  -51.9806 H         1 UNK         0.2987 
    113 H113       30.3417  -49.3119  -51.6346 H         1 UNK         0.0785 
    114 H114       28.2421  -50.6743  -51.7286 H         1 UNK         0.0798 
    115 H115       29.6409  -51.7070  -51.4933 H         1 UNK         0.0798 
    116 H116       28.8800  -51.6013  -53.0795 H         1 UNK         0.0798 
    117 H117       31.2696  -51.2817  -53.5671 H         1 UNK         0.3079 
    118 H118       33.7365  -51.2451  -53.7852 H         1 UNK         0.0794 
    119 H119       33.8769  -50.8151  -56.2769 H         1 UNK         0.0786 
    120 H120       32.8332  -49.4068  -56.0928 H         1 UNK         0.0786 
    121 H121       32.2090  -51.0175  -55.7707 H         1 UNK         0.0786 
    122 H122       34.5265  -48.4318  -53.9662 H         1 UNK         0.3032 
    123 H123       37.7205  -49.0318  -53.1624 H         1 UNK         0.1094 
    124 H124       37.3739  -48.5653  -56.1763 H         1 UNK         0.0794 
    125 H125       38.7759  -48.0843  -55.2192 H         1 UNK         0.0794 
    126 H126       38.4001  -49.7845  -55.4341 H         1 UNK         0.0794 
    127 H127       36.3861  -46.8829  -54.6791 H         1 UNK         0.3016 
@<TRIPOS>BOND
     1    1    2 1    
     2    1   67 1    
     3    1   68 1    
     4    1   69 1    
     5    2    3 2    
     6    2    4 am   BACKBONE|DICT|INTERRES
     7    4    5 1    
     8    4   70 1    
     9    5    6 1    
    10    5   65 1    
    11    5   71 1    
    12    6    7 1    
    13    6   72 1    
    14    6   73 1    
    15    7    8 1    
    16    8    9 1    
    17    8   74 1    
    18    8   75 1    
    19    9   10 ar   
    20    9   14 ar   
    21   10   11 ar   
    22   10   76 1    
    23   11   12 ar   
    24   11   48 1    
    25   12   13 ar   
    26   12   77 1    
    27   13   14 ar   
    28   13   15 1    
    29   14   78 1    
    30   15   16 1    
    31   15   79 1    
    32   15   80 1    
    33   16   17 1    
    34   17   18 1    
    35   17   81 1    
    36   17   82 1    
    37   18   19 1    
    38   18   22 1    
    39   18   83 1    
    40   19   20 am   BACKBONE|DICT|INTERRES
    41   19   21 2    
    42   20   84 1    
    43   20   85 1    
    44   22   23 am   BACKBONE|DICT|INTERRES
    45   22   86 1    
    46   23   24 2    
    47   23   25 1    
    48   25   26 1    
    49   25   27 1    
    50   25   87 1    
    51   26   88 1    
    52   26   89 1    
    53   26   90 1    
    54   27   28 am   BACKBONE|DICT|INTERRES
    55   27   91 1    
    56   28   29 2    
    57   28   30 1    
    58   30   31 1    
    59   30   32 1    
    60   30   92 1    
    61   31   93 1    
    62   31   94 1    
    63   31   95 1    
    64   32   33 am   BACKBONE|DICT|INTERRES
    65   32   96 1    
    66   33   34 2    
    67   33   35 1    
    68   35   36 1    
    69   35   37 1    
    70   35   97 1    
    71   36   98 1    
    72   36   99 1    
    73   36  100 1    
    74   37   38 am   BACKBONE|DICT|INTERRES
    75   37  101 1    
    76   38   39 2    
    77   38   40 1    
    78   40   41 1    
    79   40   42 1    
    80   40  102 1    
    81   41  103 1    
    82   41  104 1    
    83   41  105 1    
    84   42   43 am   BACKBONE|DICT|INTERRES
    85   42  106 1    
    86   43   44 2    
    87   43   45 1    
    88   45   46 1    
    89   45   49 1    
    90   45  107 1    
    91   46   47 1    
    92   46  108 1    
    93   46  109 1    
    94   47   48 1    
    95   48  110 1    
    96   48  111 1    
    97   49   50 am   BACKBONE|DICT|INTERRES
    98   49  112 1    
    99   50   51 2    
   100   50   52 1    
   101   52   53 1    
   102   52   54 1    
   103   52  113 1    
   104   53  114 1    
   105   53  115 1    
   106   53  116 1    
   107   54   55 am   BACKBONE|DICT|INTERRES
   108   54  117 1    
   109   55   56 2    
   110   55   57 1    
   111   57   58 1    
   112   57   59 1    
   113   57  118 1    
   114   58  119 1    
   115   58  120 1    
   116   58  121 1    
   117   59   60 am   BACKBONE|DICT|INTERRES
   118   59  122 1    
   119   60   61 2    
   120   60   62 1    
   121   62   63 1    
   122   62   64 1    
   123   62  123 1    
   124   63  124 1    
   125   63  125 1    
   126   63  126 1    
   127   64   65 am   BACKBONE|DICT|INTERRES
   128   64  127 1    
   129   65   66 2    
@<TRIPOS>SUBSTRUCTURE
     1 UNK         1 GROUP             0       ****    0 ROOT    
