@<TRIPOS>MOLECULE
3R134
127   129    1
SMALL
USER_CHARGES


@<TRIPOS>ATOM
      1 CA         31.7874  -44.9696  -47.5306 C.3       0 UNK        -0.1968 
      2 C          33.1516  -45.3558  -48.0828 C.2       0 UNK         0.4852 
      3 O          34.0097  -45.8144  -47.3273 O.2       0 UNK        -0.5359 
      4 N          33.3573  -45.1739  -49.3942 N.am      1 UNK        -0.4300 
      5 CA         34.5988  -45.5057  -50.1055 C.3       1 UNK         0.0863 
      6 C6         34.6947  -44.7582  -51.4597 C.3       11 UNK        -0.0953 
      7 S7         33.3495  -45.1718  -52.6238 S.3       11 UNK        -0.2369 
      8 C8         32.9644  -43.5448  -53.3353 C.3       11 UNK         0.0226 
      9 C9         32.0500  -43.6983  -54.5395 C.ar      11 UNK        -0.0699 
     10 C10        32.5852  -44.0969  -55.7663 C.ar      11 UNK        -0.0804 
     11 C11        31.7581  -44.2841  -56.8760 C.ar      11 UNK        -0.0871 
     12 C12        30.3833  -44.0609  -56.7553 C.ar      11 UNK        -0.1008 
     13 C13        29.8350  -43.6513  -55.5346 C.ar      11 UNK        -0.0735 
     14 C14        30.6752  -43.4687  -54.4303 C.ar      11 UNK        -0.0945 
     15 C15        28.3301  -43.4705  -55.3821 C.3       11 UNK         0.0169 
     16 S16        27.7506  -41.8528  -55.9814 S.3       11 UNK        -0.2669 
     17 C17        27.1812  -42.2984  -57.6566 C.3       11 UNK        -0.0850 
     18 CA         25.7763  -42.9758  -57.6535 C.3       10 UNK         0.0855 
     19 C          24.6158  -41.9750  -57.9282 C.2       10 UNK         0.5543 
     20 N          23.6425  -42.3065  -58.7687 N.am      10 UNK        -0.7343 
     21 O          24.5852  -40.8850  -57.3629 O.2       10 UNK        -0.5027 
     22 N          25.7643  -44.1484  -58.5450 N.am      10 UNK        -0.4495 
     23 C          25.6663  -45.4270  -58.1603 C.2       10 UNK         0.4903 
     24 O          25.4993  -45.7866  -56.9930 O.2       10 UNK        -0.4860 
     25 CA         25.7550  -46.4792  -59.2797 C.3       9 UNK         0.0227 
     26 CB         26.8095  -46.1306  -60.3540 C.3       9 UNK        -0.1964 
     27 N          26.0604  -47.7951  -58.7162 N.am      9 UNK        -0.4231 
     28 C          25.6522  -48.9614  -59.2310 C.2       9 UNK         0.5014 
     29 O          24.9141  -49.0448  -60.2145 O.2       9 UNK        -0.5270 
     30 CA         26.1617  -50.2660  -58.5902 C.3       8 UNK         0.0284 
     31 CB         27.2464  -50.9073  -59.4726 C.3       8 UNK        -0.1977 
     32 N          26.6801  -50.1285  -57.2267 N.am      8 UNK        -0.4342 
     33 C          25.9097  -50.0278  -56.1342 C.2       8 UNK         0.5039 
     34 O          24.6826  -49.9304  -56.1679 O.2       8 UNK        -0.5547 
     35 CA         26.6243  -50.0679  -54.7753 C.3       7 UNK         0.0281 
     36 CB         27.0607  -51.5021  -54.4312 C.3       7 UNK        -0.1963 
     37 N          27.7919  -49.1899  -54.7742 N.am      7 UNK        -0.4444 
     38 C          27.7913  -47.9275  -54.3252 C.2       7 UNK         0.5104 
     39 O          26.8354  -47.4003  -53.7557 O.2       7 UNK        -0.5100 
     40 CA         29.0697  -47.1041  -54.5575 C.3       6 UNK         0.0396 
     41 CB         29.9293  -47.0443  -53.2862 C.3       6 UNK        -0.1801 
     42 N          29.8645  -47.5967  -55.6877 N.am      6 UNK        -0.4747 
     43 C          29.4968  -47.4401  -56.9706 C.2       6 UNK         0.5012 
     44 O          28.4990  -46.8088  -57.3093 O.2       6 UNK        -0.5003 
     45 CA         30.3127  -48.1457  -58.0727 C.3       5 UNK         0.0782 
     46 C46        31.0952  -47.1507  -58.9651 C.3       11 UNK        -0.0868 
     47 S47        32.6485  -46.5258  -58.2351 S.3       11 UNK        -0.2515 
     48 C48        32.3659  -44.7270  -58.1970 C.3       11 UNK         0.0199 
     49 N          31.1478  -49.2429  -57.5803 N.am      5 UNK        -0.4607 
     50 C          30.6820  -50.3817  -57.0525 C.2       4 UNK         0.5031 
     51 O          29.4822  -50.6429  -56.9499 O.2       4 UNK        -0.5119 
     52 CA         31.7312  -51.3508  -56.4796 C.3       4 UNK         0.0263 
     53 CB         32.2536  -52.2889  -57.5786 C.3       4 UNK        -0.1967 
     54 N          32.8593  -50.6644  -55.8324 N.am      4 UNK        -0.4237 
     55 C          32.7326  -49.8527  -54.7732 C.2       3 UNK         0.4908 
     56 O          31.6505  -49.6010  -54.2405 O.2       3 UNK        -0.5102 
     57 CA         34.0046  -49.1551  -54.2664 C.3       3 UNK         0.0241 
     58 CB         34.2379  -47.8507  -55.0470 C.3       3 UNK        -0.1971 
     59 N          33.8846  -48.8392  -52.8418 N.am      3 UNK        -0.4139 
     60 C          34.0004  -49.7352  -51.8516 C.2       2 UNK         0.5016 
     61 O          34.3484  -50.9038  -52.0342 O.2       2 UNK        -0.5319 
     62 CA         33.6427  -49.2619  -50.4258 C.3       2 UNK         0.0286 
     63 CB         34.4372  -50.0086  -49.3322 C.3       2 UNK        -0.1963 
     64 N          33.7201  -47.8059  -50.2354 N.am      2 UNK        -0.4790 
     65 C          34.8142  -47.0270  -50.2852 C.2       1 UNK         0.5024 
     66 O          35.9529  -47.4520  -50.4842 O.2       1 UNK        -0.4888 
     67 H67        31.1284  -44.5789  -48.3058 H         1 UNK         0.0892 
     68 H68        31.3051  -45.8374  -47.0815 H         1 UNK         0.0892 
     69 H69        31.8969  -44.2048  -46.7622 H         1 UNK         0.0892 
     70 H70        32.6207  -44.7878  -49.9682 H         1 UNK         0.3107 
     71 H71        35.4285  -45.1549  -49.4875 H         1 UNK         0.0773 
     72 H72        35.6483  -44.9685  -51.9479 H         1 UNK         0.0680 
     73 H73        34.6910  -43.6826  -51.2761 H         1 UNK         0.0680 
     74 H74        33.8886  -43.0501  -53.6383 H         1 UNK         0.0650 
     75 H75        32.5037  -42.9133  -52.5742 H         1 UNK         0.0650 
     76 H76        33.6472  -44.2835  -55.8509 H         1 UNK         0.1397 
     77 H77        29.7380  -44.2314  -57.6049 H         1 UNK         0.1363 
     78 H78        30.2560  -43.1704  -53.4792 H         1 UNK         0.1355 
     79 H79        27.8063  -44.2715  -55.9067 H         1 UNK         0.0707 
     80 H80        28.0474  -43.5702  -54.3331 H         1 UNK         0.0707 
     81 H81        27.1940  -41.4028  -58.2809 H         1 UNK         0.1034 
     82 H82        27.9299  -42.9548  -58.0997 H         1 UNK         0.1034 
     83 H83        25.5691  -43.3270  -56.6414 H         1 UNK         0.0482 
     84 H84        23.6320  -43.2105  -59.2130 H         1 UNK         0.3460 
     85 H85        22.8928  -41.6537  -58.9362 H         1 UNK         0.3460 
     86 H86        25.8648  -43.9451  -59.5290 H         1 UNK         0.2989 
     87 H87        24.7702  -46.5098  -59.7500 H         1 UNK         0.0559 
     88 H88        27.7951  -45.9784  -59.9119 H         1 UNK         0.0848 
     89 H89        26.5474  -45.2250  -60.9011 H         1 UNK         0.0848 
     90 H90        26.8993  -46.9254  -61.0946 H         1 UNK         0.0848 
     91 H91        26.6362  -47.7755  -57.8814 H         1 UNK         0.3144 
     92 H92        25.3142  -50.9543  -58.5587 H         1 UNK         0.0727 
     93 H93        27.5699  -51.8675  -59.0700 H         1 UNK         0.0790 
     94 H94        28.1254  -50.2700  -59.5634 H         1 UNK         0.0790 
     95 H95        26.8725  -51.0901  -60.4811 H         1 UNK         0.0790 
     96 H96        27.6831  -50.2589  -57.1087 H         1 UNK         0.3215 
     97 H97        25.9123  -49.7441  -54.0127 H         1 UNK         0.0863 
     98 H98        27.5180  -51.5483  -53.4427 H         1 UNK         0.0808 
     99 H99        27.7804  -51.8957  -55.1500 H         1 UNK         0.0808 
    100 H100       26.2045  -52.1779  -54.4236 H         1 UNK         0.0808 
    101 H101       28.6251  -49.5346  -55.2345 H         1 UNK         0.3118 
    102 H102       28.7561  -46.0883  -54.7861 H         1 UNK         0.0546 
    103 H103       29.4106  -46.4998  -52.4966 H         1 UNK         0.0828 
    104 H104       30.8707  -46.5290  -53.4715 H         1 UNK         0.0828 
    105 H105       30.1548  -48.0366  -52.8967 H         1 UNK         0.0828 
    106 H106       30.6727  -48.1642  -55.4603 H         1 UNK         0.3005 
    107 H107       29.5600  -48.6019  -58.7185 H         1 UNK         0.1257 
    108 H108       30.4546  -46.3198  -59.2662 H         1 UNK         0.0775 
    109 H109       31.3649  -47.6509  -59.8965 H         1 UNK         0.0775 
    110 H110       33.3245  -44.2249  -58.3363 H         1 UNK         0.0840 
    111 H111       31.7452  -44.4154  -59.0382 H         1 UNK         0.0840 
    112 H112       32.1446  -49.0849  -57.6081 H         1 UNK         0.2987 
    113 H113       31.2324  -51.9571  -55.7204 H         1 UNK         0.0785 
    114 H114       31.4313  -52.8203  -58.0601 H         1 UNK         0.0798 
    115 H115       32.9275  -53.0423  -57.1702 H         1 UNK         0.0798 
    116 H116       32.7895  -51.7440  -58.3569 H         1 UNK         0.0798 
    117 H117       33.7766  -50.8201  -56.2262 H         1 UNK         0.3079 
    118 H118       34.8612  -49.8168  -54.4113 H         1 UNK         0.0794 
    119 H119       33.3751  -47.1845  -54.9920 H         1 UNK         0.0786 
    120 H120       34.4236  -48.0532  -56.1024 H         1 UNK         0.0786 
    121 H121       35.1031  -47.3074  -54.6663 H         1 UNK         0.0786 
    122 H122       33.5673  -47.9091  -52.6096 H         1 UNK         0.3032 
    123 H123       32.5912  -49.5234  -50.2943 H         1 UNK         0.1094 
    124 H124       35.5129  -49.8752  -49.4484 H         1 UNK         0.0794 
    125 H125       34.1613  -49.6639  -48.3356 H         1 UNK         0.0794 
    126 H126       34.2397  -51.0808  -49.3678 H         1 UNK         0.0794 
    127 H127       32.8372  -47.3413  -50.0745 H         1 UNK         0.3016 
@<TRIPOS>BOND
     1    1    2 1    
     2    1   67 1    
     3    1   68 1    
     4    1   69 1    
     5    2    3 2    
     6    2    4 am   BACKBONE|DICT|INTERRES
     7    4    5 1    
     8    4   70 1    
     9    5    6 1    
    10    5   65 1    
    11    5   71 1    
    12    6    7 1    
    13    6   72 1    
    14    6   73 1    
    15    7    8 1    
    16    8    9 1    
    17    8   74 1    
    18    8   75 1    
    19    9   10 ar   
    20    9   14 ar   
    21   10   11 ar   
    22   10   76 1    
    23   11   12 ar   
    24   11   48 1    
    25   12   13 ar   
    26   12   77 1    
    27   13   14 ar   
    28   13   15 1    
    29   14   78 1    
    30   15   16 1    
    31   15   79 1    
    32   15   80 1    
    33   16   17 1    
    34   17   18 1    
    35   17   81 1    
    36   17   82 1    
    37   18   19 1    
    38   18   22 1    
    39   18   83 1    
    40   19   20 am   BACKBONE|DICT|INTERRES
    41   19   21 2    
    42   20   84 1    
    43   20   85 1    
    44   22   23 am   BACKBONE|DICT|INTERRES
    45   22   86 1    
    46   23   24 2    
    47   23   25 1    
    48   25   26 1    
    49   25   27 1    
    50   25   87 1    
    51   26   88 1    
    52   26   89 1    
    53   26   90 1    
    54   27   28 am   BACKBONE|DICT|INTERRES
    55   27   91 1    
    56   28   29 2    
    57   28   30 1    
    58   30   31 1    
    59   30   32 1    
    60   30   92 1    
    61   31   93 1    
    62   31   94 1    
    63   31   95 1    
    64   32   33 am   BACKBONE|DICT|INTERRES
    65   32   96 1    
    66   33   34 2    
    67   33   35 1    
    68   35   36 1    
    69   35   37 1    
    70   35   97 1    
    71   36   98 1    
    72   36   99 1    
    73   36  100 1    
    74   37   38 am   BACKBONE|DICT|INTERRES
    75   37  101 1    
    76   38   39 2    
    77   38   40 1    
    78   40   41 1    
    79   40   42 1    
    80   40  102 1    
    81   41  103 1    
    82   41  104 1    
    83   41  105 1    
    84   42   43 am   BACKBONE|DICT|INTERRES
    85   42  106 1    
    86   43   44 2    
    87   43   45 1    
    88   45   46 1    
    89   45   49 1    
    90   45  107 1    
    91   46   47 1    
    92   46  108 1    
    93   46  109 1    
    94   47   48 1    
    95   48  110 1    
    96   48  111 1    
    97   49   50 am   BACKBONE|DICT|INTERRES
    98   49  112 1    
    99   50   51 2    
   100   50   52 1    
   101   52   53 1    
   102   52   54 1    
   103   52  113 1    
   104   53  114 1    
   105   53  115 1    
   106   53  116 1    
   107   54   55 am   BACKBONE|DICT|INTERRES
   108   54  117 1    
   109   55   56 2    
   110   55   57 1    
   111   57   58 1    
   112   57   59 1    
   113   57  118 1    
   114   58  119 1    
   115   58  120 1    
   116   58  121 1    
   117   59   60 am   BACKBONE|DICT|INTERRES
   118   59  122 1    
   119   60   61 2    
   120   60   62 1    
   121   62   63 1    
   122   62   64 1    
   123   62  123 1    
   124   63  124 1    
   125   63  125 1    
   126   63  126 1    
   127   64   65 am   BACKBONE|DICT|INTERRES
   128   64  127 1    
   129   65   66 2    
@<TRIPOS>SUBSTRUCTURE
     1 UNK         1 GROUP             0       ****    0 ROOT    
