@<TRIPOS>MOLECULE
3R134
127   129    1
SMALL
USER_CHARGES


@<TRIPOS>ATOM
      1 CA         32.6489  -48.8228  -59.0240 C.3       0 UNK        -0.1968 
      2 C          33.1867  -47.3963  -59.1353 C.2       0 UNK         0.4852 
      3 O          33.3723  -46.9170  -60.2526 O.2       0 UNK        -0.5359 
      4 N          33.4447  -46.6718  -58.0349 N.am      1 UNK        -0.4300 
      5 CA         33.3744  -47.0994  -56.6342 C.3       1 UNK         0.0863 
      6 C6         33.5615  -45.8933  -55.6788 C.3       11 UNK        -0.0953 
      7 S7         33.0937  -46.2512  -53.9503 S.3       11 UNK        -0.2369 
      8 C8         33.0183  -44.5700  -53.2528 C.3       11 UNK         0.0226 
      9 C9         31.6184  -43.9723  -53.3244 C.ar      11 UNK        -0.0699 
     10 C10        30.7324  -44.1460  -52.2564 C.ar      11 UNK        -0.0804 
     11 C11        29.4550  -43.5744  -52.2856 C.ar      11 UNK        -0.0871 
     12 C12        29.0629  -42.8372  -53.4071 C.ar      11 UNK        -0.1008 
     13 C13        29.9419  -42.6413  -54.4771 C.ar      11 UNK        -0.0735 
     14 C14        31.2214  -43.2070  -54.4265 C.ar      11 UNK        -0.0945 
     15 C15        29.5157  -41.7866  -55.6655 C.3       11 UNK         0.0169 
     16 S16        29.4003  -42.7700  -57.1893 S.3       11 UNK        -0.2669 
     17 C17        28.1581  -41.8493  -58.1579 C.3       11 UNK        -0.0850 
     18 CA         26.7124  -42.3845  -57.9634 C.3       10 UNK         0.0855 
     19 C          25.7063  -41.5684  -58.8265 C.2       10 UNK         0.5543 
     20 N          25.0335  -42.1615  -59.8051 N.am      10 UNK        -0.7343 
     21 O          25.5339  -40.3733  -58.6000 O.2       10 UNK        -0.5027 
     22 N          26.6386  -43.8475  -58.1248 N.am      10 UNK        -0.4495 
     23 C          25.6414  -44.6316  -57.6999 C.2       10 UNK         0.4903 
     24 O          24.6129  -44.2052  -57.1745 O.2       10 UNK        -0.4860 
     25 CA         25.8250  -46.1529  -57.8530 C.3       9 UNK         0.0227 
     26 CB         25.4849  -46.6269  -59.2794 C.3       9 UNK        -0.1964 
     27 N          27.1364  -46.6404  -57.4026 N.am      9 UNK        -0.4231 
     28 C          28.3452  -46.4512  -57.9519 C.2       9 UNK         0.5014 
     29 O          28.5381  -45.8399  -59.0037 O.2       9 UNK        -0.5270 
     30 CA         29.5489  -47.0108  -57.1751 C.3       8 UNK         0.0284 
     31 CB         29.9463  -46.0547  -56.0400 C.3       8 UNK        -0.1977 
     32 N          29.3150  -48.3404  -56.6119 N.am      8 UNK        -0.4342 
     33 C          29.1349  -49.4611  -57.3244 C.2       8 UNK         0.5039 
     34 O          29.1674  -49.5114  -58.5537 O.2       8 UNK        -0.5547 
     35 CA         28.8854  -50.7467  -56.5214 C.3       7 UNK         0.0281 
     36 CB         30.2167  -51.3747  -56.0748 C.3       7 UNK        -0.1963 
     37 N          28.0404  -50.4900  -55.3536 N.am      7 UNK        -0.4444 
     38 C          26.7096  -50.3339  -55.4115 C.2       7 UNK         0.5104 
     39 O          26.0421  -50.4972  -56.4328 O.2       7 UNK        -0.5100 
     40 CA         26.0032  -49.9008  -54.1143 C.3       6 UNK         0.0396 
     41 CB         25.5762  -51.1307  -53.2978 C.3       6 UNK        -0.1801 
     42 N          26.8225  -49.0200  -53.2767 N.am      6 UNK        -0.4747 
     43 C          27.2080  -47.7795  -53.6145 C.2       6 UNK         0.5012 
     44 O          26.8841  -47.2278  -54.6646 O.2       6 UNK        -0.5003 
     45 CA         28.1495  -47.0526  -52.6347 C.3       5 UNK         0.0782 
     46 C46        27.3306  -46.1793  -51.6541 C.3       11 UNK        -0.0868 
     47 S47        28.3679  -45.3547  -50.4006 S.3       11 UNK        -0.2515 
     48 C48        28.5232  -43.6715  -51.0804 C.3       11 UNK         0.0199 
     49 N          29.0526  -47.9800  -51.9423 N.am      5 UNK        -0.4607 
     50 C          30.0071  -48.7011  -52.5382 C.2       4 UNK         0.5031 
     51 O          30.1997  -48.7217  -53.7572 O.2       4 UNK        -0.5119 
     52 CA         30.8708  -49.5712  -51.6270 C.3       4 UNK         0.0263 
     53 CB         30.5699  -51.0647  -51.8480 C.3       4 UNK        -0.1967 
     54 N          32.2645  -49.2832  -51.9338 N.am      4 UNK        -0.4237 
     55 C          33.3007  -49.4596  -51.1048 C.2       3 UNK         0.4908 
     56 O          33.1895  -49.8972  -49.9578 O.2       3 UNK        -0.5102 
     57 CA         34.6914  -49.0739  -51.6526 C.3       3 UNK         0.0241 
     58 CB         35.8531  -49.7174  -50.8647 C.3       3 UNK        -0.1971 
     59 N          34.8251  -49.3241  -53.0944 N.am      3 UNK        -0.4139 
     60 C          34.7355  -50.5033  -53.7316 C.2       2 UNK         0.5016 
     61 O          34.6160  -51.5894  -53.1628 O.2       2 UNK        -0.5319 
     62 CA         34.7272  -50.4368  -55.2693 C.3       2 UNK         0.0286 
     63 CB         34.1644  -51.7178  -55.9149 C.3       2 UNK        -0.1963 
     64 N          33.9246  -49.2927  -55.7100 N.am      2 UNK        -0.4790 
     65 C          34.3979  -48.2152  -56.3457 C.2       1 UNK         0.5024 
     66 O          35.5740  -48.0711  -56.6835 O.2       1 UNK        -0.4888 
     67 H67        32.0289  -48.9743  -58.1435 H         1 UNK         0.0892 
     68 H68        32.0320  -49.0591  -59.8909 H         1 UNK         0.0892 
     69 H69        33.4726  -49.5355  -58.9950 H         1 UNK         0.0892 
     70 H70        33.8155  -45.7426  -58.1703 H         1 UNK         0.3107 
     71 H71        32.3734  -47.4968  -56.4685 H         1 UNK         0.0773 
     72 H72        34.5912  -45.5305  -55.6996 H         1 UNK         0.0680 
     73 H73        32.9444  -45.0619  -56.0201 H         1 UNK         0.0680 
     74 H74        33.7352  -43.9229  -53.7605 H         1 UNK         0.0650 
     75 H75        33.3431  -44.6159  -52.2123 H         1 UNK         0.0650 
     76 H76        31.0467  -44.7110  -51.3895 H         1 UNK         0.1397 
     77 H77        28.0810  -42.3845  -53.4335 H         1 UNK         0.1363 
     78 H78        31.9059  -43.0484  -55.2481 H         1 UNK         0.1355 
     79 H79        28.5519  -41.3154  -55.4663 H         1 UNK         0.0707 
     80 H80        30.2322  -40.9773  -55.8121 H         1 UNK         0.0707 
     81 H81        28.2176  -40.7896  -57.9017 H         1 UNK         0.1034 
     82 H82        28.4437  -41.9190  -59.2093 H         1 UNK         0.1034 
     83 H83        26.4373  -42.1801  -56.9269 H         1 UNK         0.0482 
     84 H84        25.1689  -43.1421  -59.9910 H         1 UNK         0.3460 
     85 H85        24.3824  -41.6250  -60.3565 H         1 UNK         0.3460 
     86 H86        27.4496  -44.2992  -58.5376 H         1 UNK         0.2989 
     87 H87        25.1063  -46.6217  -57.1789 H         1 UNK         0.0559 
     88 H88        24.4609  -46.3586  -59.5423 H         1 UNK         0.0848 
     89 H89        25.5686  -47.7103  -59.3656 H         1 UNK         0.0848 
     90 H90        26.1374  -46.1799  -60.0295 H         1 UNK         0.0848 
     91 H91        27.1192  -47.0645  -56.4761 H         1 UNK         0.3144 
     92 H92        30.3859  -47.0920  -57.8698 H         1 UNK         0.0727 
     93 H93        29.0814  -45.6126  -55.5435 H         1 UNK         0.0790 
     94 H94        30.5475  -45.2372  -56.4329 H         1 UNK         0.0790 
     95 H95        30.5425  -46.5449  -55.2736 H         1 UNK         0.0790 
     96 H96        29.3373  -48.4158  -55.6006 H         1 UNK         0.3215 
     97 H97        28.3771  -51.4584  -57.1761 H         1 UNK         0.0863 
     98 H98        30.8479  -51.5978  -56.9362 H         1 UNK         0.0808 
     99 H99        30.0540  -52.3119  -55.5426 H         1 UNK         0.0808 
    100 H100       30.7834  -50.7125  -55.4205 H         1 UNK         0.0808 
    101 H101       28.5103  -50.3110  -54.4777 H         1 UNK         0.3118 
    102 H102       25.1033  -49.3502  -54.3970 H         1 UNK         0.0546 
    103 H103       26.4347  -51.7146  -52.9637 H         1 UNK         0.0828 
    104 H104       24.9444  -51.7923  -53.8922 H         1 UNK         0.0828 
    105 H105       25.0011  -50.8432  -52.4174 H         1 UNK         0.0828 
    106 H106       27.1332  -49.3903  -52.3899 H         1 UNK         0.3005 
    107 H107       28.7748  -46.3851  -53.2321 H         1 UNK         0.1257 
    108 H108       26.5979  -46.7878  -51.1201 H         1 UNK         0.0775 
    109 H109       26.7573  -45.4274  -52.2002 H         1 UNK         0.0775 
    110 H110       27.5289  -43.2911  -51.3195 H         1 UNK         0.0840 
    111 H111       28.9143  -43.0209  -50.2971 H         1 UNK         0.0840 
    112 H112       28.9680  -48.0048  -50.9361 H         1 UNK         0.2987 
    113 H113       30.6700  -49.3121  -50.5851 H         1 UNK         0.0785 
    114 H114       29.5203  -51.2875  -51.6528 H         1 UNK         0.0798 
    115 H115       31.1630  -51.6904  -51.1809 H         1 UNK         0.0798 
    116 H116       30.7877  -51.3730  -52.8714 H         1 UNK         0.0798 
    117 H117       32.4191  -48.8683  -52.8427 H         1 UNK         0.3079 
    118 H118       34.7704  -47.9930  -51.5254 H         1 UNK         0.0794 
    119 H119       36.8202  -49.4197  -51.2698 H         1 UNK         0.0786 
    120 H120       35.8020  -50.8064  -50.8829 H         1 UNK         0.0786 
    121 H121       35.8335  -49.4099  -49.8184 H         1 UNK         0.0786 
    122 H122       34.9184  -48.4973  -53.6681 H         1 UNK         0.3032 
    123 H123       35.7675  -50.3272  -55.5846 H         1 UNK         0.1094 
    124 H124       33.1514  -51.9315  -55.5726 H         1 UNK         0.0794 
    125 H125       34.1420  -51.6375  -57.0018 H         1 UNK         0.0794 
    126 H126       34.7809  -52.5832  -55.6683 H         1 UNK         0.0794 
    127 H127       32.9491  -49.3126  -55.4462 H         1 UNK         0.3016 
@<TRIPOS>BOND
     1    1    2 1    
     2    1   67 1    
     3    1   68 1    
     4    1   69 1    
     5    2    3 2    
     6    2    4 am   BACKBONE|DICT|INTERRES
     7    4    5 1    
     8    4   70 1    
     9    5    6 1    
    10    5   65 1    
    11    5   71 1    
    12    6    7 1    
    13    6   72 1    
    14    6   73 1    
    15    7    8 1    
    16    8    9 1    
    17    8   74 1    
    18    8   75 1    
    19    9   10 ar   
    20    9   14 ar   
    21   10   11 ar   
    22   10   76 1    
    23   11   12 ar   
    24   11   48 1    
    25   12   13 ar   
    26   12   77 1    
    27   13   14 ar   
    28   13   15 1    
    29   14   78 1    
    30   15   16 1    
    31   15   79 1    
    32   15   80 1    
    33   16   17 1    
    34   17   18 1    
    35   17   81 1    
    36   17   82 1    
    37   18   19 1    
    38   18   22 1    
    39   18   83 1    
    40   19   20 am   BACKBONE|DICT|INTERRES
    41   19   21 2    
    42   20   84 1    
    43   20   85 1    
    44   22   23 am   BACKBONE|DICT|INTERRES
    45   22   86 1    
    46   23   24 2    
    47   23   25 1    
    48   25   26 1    
    49   25   27 1    
    50   25   87 1    
    51   26   88 1    
    52   26   89 1    
    53   26   90 1    
    54   27   28 am   BACKBONE|DICT|INTERRES
    55   27   91 1    
    56   28   29 2    
    57   28   30 1    
    58   30   31 1    
    59   30   32 1    
    60   30   92 1    
    61   31   93 1    
    62   31   94 1    
    63   31   95 1    
    64   32   33 am   BACKBONE|DICT|INTERRES
    65   32   96 1    
    66   33   34 2    
    67   33   35 1    
    68   35   36 1    
    69   35   37 1    
    70   35   97 1    
    71   36   98 1    
    72   36   99 1    
    73   36  100 1    
    74   37   38 am   BACKBONE|DICT|INTERRES
    75   37  101 1    
    76   38   39 2    
    77   38   40 1    
    78   40   41 1    
    79   40   42 1    
    80   40  102 1    
    81   41  103 1    
    82   41  104 1    
    83   41  105 1    
    84   42   43 am   BACKBONE|DICT|INTERRES
    85   42  106 1    
    86   43   44 2    
    87   43   45 1    
    88   45   46 1    
    89   45   49 1    
    90   45  107 1    
    91   46   47 1    
    92   46  108 1    
    93   46  109 1    
    94   47   48 1    
    95   48  110 1    
    96   48  111 1    
    97   49   50 am   BACKBONE|DICT|INTERRES
    98   49  112 1    
    99   50   51 2    
   100   50   52 1    
   101   52   53 1    
   102   52   54 1    
   103   52  113 1    
   104   53  114 1    
   105   53  115 1    
   106   53  116 1    
   107   54   55 am   BACKBONE|DICT|INTERRES
   108   54  117 1    
   109   55   56 2    
   110   55   57 1    
   111   57   58 1    
   112   57   59 1    
   113   57  118 1    
   114   58  119 1    
   115   58  120 1    
   116   58  121 1    
   117   59   60 am   BACKBONE|DICT|INTERRES
   118   59  122 1    
   119   60   61 2    
   120   60   62 1    
   121   62   63 1    
   122   62   64 1    
   123   62  123 1    
   124   63  124 1    
   125   63  125 1    
   126   63  126 1    
   127   64   65 am   BACKBONE|DICT|INTERRES
   128   64  127 1    
   129   65   66 2    
@<TRIPOS>SUBSTRUCTURE
     1 UNK         1 GROUP             0       ****    0 ROOT    
