@<TRIPOS>MOLECULE
3R134
127   129    1
SMALL
USER_CHARGES


@<TRIPOS>ATOM
      1 CA         33.4295  -45.4828  -57.8703 C.3       0 UNK        -0.1968 
      2 C          33.6457  -45.8839  -56.4194 C.2       0 UNK         0.4852 
      3 O          33.2108  -46.9609  -56.0146 O.2       0 UNK        -0.5359 
      4 N          34.3316  -45.0353  -55.6406 N.am      1 UNK        -0.4300 
      5 CA         34.5545  -45.1766  -54.1920 C.3       1 UNK         0.0863 
      6 C6         35.2416  -43.9271  -53.5819 C.3       11 UNK        -0.0953 
      7 S7         34.5010  -42.3387  -54.0874 S.3       11 UNK        -0.2369 
      8 C8         33.2800  -42.0433  -52.7647 C.3       11 UNK         0.0226 
      9 C9         31.9723  -42.8142  -52.9356 C.ar      11 UNK        -0.0699 
     10 C10        31.3206  -43.3294  -51.8105 C.ar      11 UNK        -0.0804 
     11 C11        30.0746  -43.9561  -51.9282 C.ar      11 UNK        -0.0871 
     12 C12        29.4864  -44.0846  -53.1906 C.ar      11 UNK        -0.1008 
     13 C13        30.1360  -43.5931  -54.3261 C.ar      11 UNK        -0.0735 
     14 C14        31.3706  -42.9527  -54.1915 C.ar      11 UNK        -0.0945 
     15 C15        29.5097  -43.7397  -55.7022 C.3       11 UNK         0.0169 
     16 S16        28.5600  -42.2550  -56.1542 S.3       11 UNK        -0.2669 
     17 C17        28.4314  -42.4506  -57.9654 C.3       11 UNK        -0.0850 
     18 CA         27.0438  -42.9497  -58.4460 C.3       10 UNK         0.0855 
     19 C          27.0030  -42.9757  -60.0035 C.2       10 UNK         0.5543 
     20 N          27.0594  -44.1344  -60.6516 N.am      10 UNK        -0.7343 
     21 O          26.9222  -41.9225  -60.6305 O.2       10 UNK        -0.5027 
     22 N          26.6748  -44.2250  -57.8140 N.am      10 UNK        -0.4495 
     23 C          25.4684  -44.8014  -57.8818 C.2       10 UNK         0.4903 
     24 O          24.4729  -44.2406  -58.3427 O.2       10 UNK        -0.4860 
     25 CA         25.3511  -46.2483  -57.3553 C.3       9 UNK         0.0227 
     26 CB         24.3658  -47.0898  -58.1922 C.3       9 UNK        -0.1964 
     27 N          26.6276  -46.9658  -57.2133 N.am      9 UNK        -0.4231 
     28 C          27.5438  -47.2186  -58.1632 C.2       9 UNK         0.5014 
     29 O          27.4791  -46.7921  -59.3175 O.2       9 UNK        -0.5270 
     30 CA         28.7436  -48.0841  -57.7443 C.3       8 UNK         0.0284 
     31 CB         29.7398  -47.2713  -56.9013 C.3       8 UNK        -0.1977 
     32 N          28.3369  -49.2778  -57.0024 N.am      8 UNK        -0.4342 
     33 C          27.6274  -50.2944  -57.5135 C.2       8 UNK         0.5039 
     34 O          27.2989  -50.3825  -58.6972 O.2       8 UNK        -0.5547 
     35 CA         27.1953  -51.3910  -56.5297 C.3       7 UNK         0.0281 
     36 CB         28.3417  -52.3837  -56.2725 C.3       7 UNK        -0.1963 
     37 N          26.7362  -50.8122  -55.2651 N.am      7 UNK        -0.4444 
     38 C          25.5117  -50.3001  -55.0744 C.2       7 UNK         0.5104 
     39 O          24.6175  -50.3331  -55.9199 O.2       7 UNK        -0.5100 
     40 CA         25.2231  -49.6424  -53.7121 C.3       6 UNK         0.0396 
     41 CB         24.5262  -50.6412  -52.7746 C.3       6 UNK        -0.1801 
     42 N          26.4170  -49.1127  -53.0481 N.am      6 UNK        -0.4747 
     43 C          27.0912  -48.0237  -53.4454 C.2       6 UNK         0.5012 
     44 O          26.7805  -47.3414  -54.4211 O.2       6 UNK        -0.5003 
     45 CA         28.3616  -47.6701  -52.6476 C.3       5 UNK         0.0782 
     46 C46        27.9937  -46.8351  -51.3983 C.3       11 UNK        -0.0868 
     47 S47        29.4604  -46.2521  -50.4796 S.3       11 UNK        -0.2515 
     48 C48        29.3496  -44.4453  -50.6814 C.3       11 UNK         0.0199 
     49 N          29.1714  -48.8483  -52.3086 N.am      5 UNK        -0.4607 
     50 C          29.6647  -49.7203  -53.1951 C.2       4 UNK         0.5031 
     51 O          29.3920  -49.7057  -54.3978 O.2       4 UNK        -0.5119 
     52 CA         30.5944  -50.8152  -52.6499 C.3       4 UNK         0.0263 
     53 CB         29.8200  -52.1281  -52.4520 C.3       4 UNK        -0.1967 
     54 N          31.7110  -51.0390  -53.5705 N.am      4 UNK        -0.4237 
     55 C          32.6597  -50.1266  -53.8204 C.2       3 UNK         0.4908 
     56 O          32.7764  -49.0779  -53.1809 O.2       3 UNK        -0.5102 
     57 CA         33.6105  -50.4374  -54.9878 C.3       3 UNK         0.0241 
     58 CB         32.8500  -50.4519  -56.3271 C.3       3 UNK        -0.1971 
     59 N          34.6592  -49.4210  -55.0597 N.am      3 UNK        -0.4139 
     60 C          35.8796  -49.5388  -54.5197 C.2       2 UNK         0.5016 
     61 O          36.2993  -50.5723  -53.9960 O.2       2 UNK        -0.5319 
     62 CA         36.8017  -48.3048  -54.5709 C.3       2 UNK         0.0286 
     63 CB         37.8281  -48.4474  -55.7069 C.3       2 UNK        -0.1963 
     64 N          36.0765  -47.0432  -54.7406 N.am      2 UNK        -0.4790 
     65 C          35.3444  -46.4442  -53.7891 C.2       1 UNK         0.5024 
     66 O          35.2919  -46.8433  -52.6253 O.2       1 UNK        -0.4888 
     67 H67        33.8461  -46.2396  -58.5344 H         1 UNK         0.0892 
     68 H68        32.3637  -45.3964  -58.0788 H         1 UNK         0.0892 
     69 H69        33.8998  -44.5281  -58.1050 H         1 UNK         0.0892 
     70 H70        34.6670  -44.1670  -56.0335 H         1 UNK         0.3107 
     71 H71        33.5666  -45.2722  -53.7358 H         1 UNK         0.0773 
     72 H72        36.2916  -43.8926  -53.8795 H         1 UNK         0.0680 
     73 H73        35.2428  -43.9865  -52.4919 H         1 UNK         0.0680 
     74 H74        33.0420  -40.9790  -52.7553 H         1 UNK         0.0650 
     75 H75        33.7385  -42.2611  -51.7990 H         1 UNK         0.0650 
     76 H76        31.7701  -43.2136  -50.8336 H         1 UNK         0.1397 
     77 H77        28.5185  -44.5553  -53.2905 H         1 UNK         0.1363 
     78 H78        31.8536  -42.5464  -55.0693 H         1 UNK         0.1355 
     79 H79        30.2968  -43.9224  -56.4354 H         1 UNK         0.0707 
     80 H80        28.8499  -44.6073  -55.7273 H         1 UNK         0.0707 
     81 H81        28.6466  -41.4744  -58.4052 H         1 UNK         0.1034 
     82 H82        29.2210  -43.1123  -58.3260 H         1 UNK         0.1034 
     83 H83        26.3010  -42.2141  -58.1313 H         1 UNK         0.0482 
     84 H84        27.1416  -45.0112  -60.1460 H         1 UNK         0.3460 
     85 H85        27.0308  -44.1380  -61.6585 H         1 UNK         0.3460 
     86 H86        27.4302  -44.7605  -57.4185 H         1 UNK         0.2989 
     87 H87        24.9425  -46.1672  -56.3471 H         1 UNK         0.0559 
     88 H88        24.6879  -47.1711  -59.2309 H         1 UNK         0.0848 
     89 H89        23.3689  -46.6475  -58.1933 H         1 UNK         0.0848 
     90 H90        24.2690  -48.0993  -57.7919 H         1 UNK         0.0848 
     91 H91        26.8082  -47.3042  -56.2695 H         1 UNK         0.3144 
     92 H92        29.2526  -48.4104  -58.6536 H         1 UNK         0.0727 
     93 H93        29.3147  -46.9747  -55.9423 H         1 UNK         0.0790 
     94 H94        30.0499  -46.3658  -57.4238 H         1 UNK         0.0790 
     95 H95        30.6414  -47.8466  -56.6935 H         1 UNK         0.0790 
     96 H96        28.6271  -49.3361  -56.0275 H         1 UNK         0.3215 
     97 H97        26.3701  -51.9443  -56.9842 H         1 UNK         0.0863 
     98 H98        28.0376  -53.1713  -55.5832 H         1 UNK         0.0808 
     99 H99        29.2240  -51.8952  -55.8589 H         1 UNK         0.0808 
    100 H100       28.6478  -52.8674  -57.2010 H         1 UNK         0.0808 
    101 H101       27.4336  -50.6811  -54.5447 H         1 UNK         0.3118 
    102 H102       24.5383  -48.8103  -53.8901 H         1 UNK         0.0546 
    103 H103       25.1656  -51.4941  -52.5435 H         1 UNK         0.0828 
    104 H104       23.6148  -51.0320  -53.2295 H         1 UNK         0.0828 
    105 H105       24.2391  -50.1703  -51.8343 H         1 UNK         0.0828 
    106 H106       26.7556  -49.6184  -52.2417 H         1 UNK         0.3005 
    107 H107       28.9771  -47.0495  -53.3026 H         1 UNK         0.1257 
    108 H108       27.3859  -47.4265  -50.7107 H         1 UNK         0.0775 
    109 H109       27.3752  -45.9806  -51.6783 H         1 UNK         0.0775 
    110 H110       28.3077  -44.1229  -50.7011 H         1 UNK         0.0840 
    111 H111       29.7809  -43.9798  -49.7938 H         1 UNK         0.0840 
    112 H112       29.4484  -48.9235  -51.3402 H         1 UNK         0.2987 
    113 H113       31.0000  -50.4963  -51.6873 H         1 UNK         0.0785 
    114 H114       28.9931  -51.9928  -51.7535 H         1 UNK         0.0798 
    115 H115       30.4618  -52.9087  -52.0431 H         1 UNK         0.0798 
    116 H116       29.3986  -52.4973  -53.3874 H         1 UNK         0.0798 
    117 H117       31.6627  -51.8644  -54.1491 H         1 UNK         0.3079 
    118 H118       34.0488  -51.4237  -54.8217 H         1 UNK         0.0794 
    119 H119       32.0902  -51.2338  -56.3487 H         1 UNK         0.0786 
    120 H120       33.5251  -50.6370  -57.1628 H         1 UNK         0.0786 
    121 H121       32.3445  -49.5040  -56.5119 H         1 UNK         0.0786 
    122 H122       34.3538  -48.5071  -55.3826 H         1 UNK         0.3032 
    123 H123       37.3423  -48.2661  -53.6223 H         1 UNK         0.1094 
    124 H124       38.5348  -47.6173  -55.7107 H         1 UNK         0.0794 
    125 H125       38.4089  -49.3641  -55.5948 H         1 UNK         0.0794 
    126 H126       37.3462  -48.4850  -56.6848 H         1 UNK         0.0794 
    127 H127       36.0701  -46.6394  -55.6661 H         1 UNK         0.3016 
@<TRIPOS>BOND
     1    1    2 1    
     2    1   67 1    
     3    1   68 1    
     4    1   69 1    
     5    2    3 2    
     6    2    4 am   BACKBONE|DICT|INTERRES
     7    4    5 1    
     8    4   70 1    
     9    5    6 1    
    10    5   65 1    
    11    5   71 1    
    12    6    7 1    
    13    6   72 1    
    14    6   73 1    
    15    7    8 1    
    16    8    9 1    
    17    8   74 1    
    18    8   75 1    
    19    9   10 ar   
    20    9   14 ar   
    21   10   11 ar   
    22   10   76 1    
    23   11   12 ar   
    24   11   48 1    
    25   12   13 ar   
    26   12   77 1    
    27   13   14 ar   
    28   13   15 1    
    29   14   78 1    
    30   15   16 1    
    31   15   79 1    
    32   15   80 1    
    33   16   17 1    
    34   17   18 1    
    35   17   81 1    
    36   17   82 1    
    37   18   19 1    
    38   18   22 1    
    39   18   83 1    
    40   19   20 am   BACKBONE|DICT|INTERRES
    41   19   21 2    
    42   20   84 1    
    43   20   85 1    
    44   22   23 am   BACKBONE|DICT|INTERRES
    45   22   86 1    
    46   23   24 2    
    47   23   25 1    
    48   25   26 1    
    49   25   27 1    
    50   25   87 1    
    51   26   88 1    
    52   26   89 1    
    53   26   90 1    
    54   27   28 am   BACKBONE|DICT|INTERRES
    55   27   91 1    
    56   28   29 2    
    57   28   30 1    
    58   30   31 1    
    59   30   32 1    
    60   30   92 1    
    61   31   93 1    
    62   31   94 1    
    63   31   95 1    
    64   32   33 am   BACKBONE|DICT|INTERRES
    65   32   96 1    
    66   33   34 2    
    67   33   35 1    
    68   35   36 1    
    69   35   37 1    
    70   35   97 1    
    71   36   98 1    
    72   36   99 1    
    73   36  100 1    
    74   37   38 am   BACKBONE|DICT|INTERRES
    75   37  101 1    
    76   38   39 2    
    77   38   40 1    
    78   40   41 1    
    79   40   42 1    
    80   40  102 1    
    81   41  103 1    
    82   41  104 1    
    83   41  105 1    
    84   42   43 am   BACKBONE|DICT|INTERRES
    85   42  106 1    
    86   43   44 2    
    87   43   45 1    
    88   45   46 1    
    89   45   49 1    
    90   45  107 1    
    91   46   47 1    
    92   46  108 1    
    93   46  109 1    
    94   47   48 1    
    95   48  110 1    
    96   48  111 1    
    97   49   50 am   BACKBONE|DICT|INTERRES
    98   49  112 1    
    99   50   51 2    
   100   50   52 1    
   101   52   53 1    
   102   52   54 1    
   103   52  113 1    
   104   53  114 1    
   105   53  115 1    
   106   53  116 1    
   107   54   55 am   BACKBONE|DICT|INTERRES
   108   54  117 1    
   109   55   56 2    
   110   55   57 1    
   111   57   58 1    
   112   57   59 1    
   113   57  118 1    
   114   58  119 1    
   115   58  120 1    
   116   58  121 1    
   117   59   60 am   BACKBONE|DICT|INTERRES
   118   59  122 1    
   119   60   61 2    
   120   60   62 1    
   121   62   63 1    
   122   62   64 1    
   123   62  123 1    
   124   63  124 1    
   125   63  125 1    
   126   63  126 1    
   127   64   65 am   BACKBONE|DICT|INTERRES
   128   64  127 1    
   129   65   66 2    
@<TRIPOS>SUBSTRUCTURE
     1 UNK         1 GROUP             0       ****    0 ROOT    
