@<TRIPOS>MOLECULE
3R134
127   129    1
SMALL
USER_CHARGES


@<TRIPOS>ATOM
      1 CA         33.2455  -49.8095  -58.4914 C.3       0 UNK        -0.1968 
      2 C          33.1673  -49.4218  -57.0234 C.2       0 UNK         0.4852 
      3 O          33.0428  -50.2958  -56.1649 O.2       0 UNK        -0.5359 
      4 N          33.2613  -48.1189  -56.7213 N.am      1 UNK        -0.4300 
      5 CA         33.0846  -47.5330  -55.3842 C.3       1 UNK         0.0863 
      6 C6         32.8074  -46.0120  -55.4236 C.3       11 UNK        -0.0953 
      7 S7         33.9863  -45.0560  -56.4356 S.3       11 UNK        -0.2369 
      8 C8         33.8714  -43.4096  -55.6619 C.3       11 UNK         0.0226 
      9 C9         32.4299  -42.9513  -55.4754 C.ar      11 UNK        -0.0699 
     10 C10        31.9019  -42.8110  -54.1897 C.ar      11 UNK        -0.0804 
     11 C11        30.5757  -42.4136  -54.0069 C.ar      11 UNK        -0.0871 
     12 C12        29.7775  -42.1462  -55.1227 C.ar      11 UNK        -0.1008 
     13 C13        30.2927  -42.2708  -56.4215 C.ar      11 UNK        -0.0735 
     14 C14        31.6221  -42.6767  -56.5828 C.ar      11 UNK        -0.0945 
     15 C15        29.4731  -41.9761  -57.6812 C.3       11 UNK         0.0169 
     16 S16        27.8644  -41.1484  -57.4089 S.3       11 UNK        -0.2669 
     17 C17        26.6831  -42.5057  -57.7156 C.3       11 UNK        -0.0850 
     18 CA         26.4403  -43.4332  -56.4869 C.3       10 UNK         0.0855 
     19 C          25.4022  -42.8807  -55.4631 C.2       10 UNK         0.5543 
     20 N          24.6141  -43.7259  -54.8094 N.am      10 UNK        -0.7343 
     21 O          25.3246  -41.6775  -55.2304 O.2       10 UNK        -0.5027 
     22 N          26.2197  -44.8308  -56.8882 N.am      10 UNK        -0.4495 
     23 C          25.2655  -45.2789  -57.7174 C.2       10 UNK         0.4903 
     24 O          24.3958  -44.5601  -58.2118 O.2       10 UNK        -0.4860 
     25 CA         25.2992  -46.7845  -58.0561 C.3       9 UNK         0.0227 
     26 CB         24.5722  -47.1218  -59.3749 C.3       9 UNK        -0.1964 
     27 N          26.6580  -47.3419  -58.0458 N.am      9 UNK        -0.4231 
     28 C          27.7035  -46.9740  -58.8069 C.2       9 UNK         0.5014 
     29 O          27.6241  -46.1708  -59.7374 O.2       9 UNK        -0.5270 
     30 CA         29.0844  -47.5598  -58.4507 C.3       8 UNK         0.0284 
     31 CB         30.0658  -46.4318  -58.0869 C.3       8 UNK        -0.1977 
     32 N          29.0167  -48.5065  -57.3337 N.am      8 UNK        -0.4342 
     33 C          28.8481  -49.8298  -57.4627 C.2       8 UNK         0.5039 
     34 O          28.8611  -50.4184  -58.5440 O.2       8 UNK        -0.5547 
     35 CA         28.5728  -50.6310  -56.1773 C.3       7 UNK         0.0281 
     36 CB         29.8491  -51.3169  -55.6724 C.3       7 UNK        -0.1963 
     37 N          27.9943  -49.8144  -55.1044 N.am      7 UNK        -0.4444 
     38 C          26.7289  -49.3683  -55.1069 C.2       7 UNK         0.5104 
     39 O          25.9293  -49.6107  -56.0099 O.2       7 UNK        -0.5100 
     40 CA         26.2813  -48.4575  -53.9490 C.3       6 UNK         0.0396 
     41 CB         25.6436  -49.2932  -52.8288 C.3       6 UNK        -0.1801 
     42 N          27.3515  -47.6321  -53.3866 N.am      6 UNK        -0.4747 
     43 C          28.0658  -46.7183  -54.0593 C.2       6 UNK         0.5012 
     44 O          27.8888  -46.4534  -55.2491 O.2       6 UNK        -0.5003 
     45 CA         29.1992  -46.0182  -53.2831 C.3       5 UNK         0.0782 
     46 C46        28.6519  -44.7349  -52.6096 C.3       11 UNK        -0.0868 
     47 S47        29.9365  -43.8195  -51.6910 S.3       11 UNK        -0.2515 
     48 C48        30.0158  -42.2443  -52.6014 C.3       11 UNK         0.0199 
     49 N          29.8955  -46.8891  -52.3188 N.am      5 UNK        -0.4607 
     50 C          30.4172  -48.1009  -52.5563 C.2       4 UNK         0.5031 
     51 O          30.2619  -48.7121  -53.6133 O.2       4 UNK        -0.5119 
     52 CA         31.2427  -48.7109  -51.4110 C.3       4 UNK         0.0263 
     53 CB         30.3410  -49.1977  -50.2577 C.3       4 UNK        -0.1967 
     54 N          32.1742  -49.7530  -51.8691 N.am      4 UNK        -0.4237 
     55 C          31.9200  -51.0146  -52.2560 C.2       3 UNK         0.4908 
     56 O          30.8089  -51.5437  -52.2000 O.2       3 UNK        -0.5102 
     57 CA         33.1207  -51.8323  -52.7828 C.3       3 UNK         0.0241 
     58 CB         32.6915  -52.9668  -53.7321 C.3       3 UNK        -0.1971 
     59 N          34.0891  -50.9814  -53.4787 N.am      3 UNK        -0.4139 
     60 C          35.2290  -50.5033  -52.9554 C.2       2 UNK         0.5016 
     61 O          35.6465  -50.8032  -51.8369 O.2       2 UNK        -0.5319 
     62 CA         36.0120  -49.4718  -53.7964 C.3       2 UNK         0.0286 
     63 CB         37.1262  -50.1627  -54.5983 C.3       2 UNK        -0.1963 
     64 N          35.1520  -48.7189  -54.7150 N.am      2 UNK        -0.4790 
     65 C          34.1444  -47.9227  -54.3293 C.2       1 UNK         0.5024 
     66 O          33.9870  -47.5667  -53.1603 O.2       1 UNK        -0.4888 
     67 H67        34.0654  -50.5088  -58.6525 H         1 UNK         0.0892 
     68 H68        32.3180  -50.2939  -58.7962 H         1 UNK         0.0892 
     69 H69        33.4036  -48.9440  -59.1346 H         1 UNK         0.0892 
     70 H70        33.4242  -47.4464  -57.4579 H         1 UNK         0.3107 
     71 H71        32.1701  -47.9868  -55.0076 H         1 UNK         0.0773 
     72 H72        31.8135  -45.8370  -55.8347 H         1 UNK         0.0680 
     73 H73        32.7711  -45.5985  -54.4139 H         1 UNK         0.0680 
     74 H74        34.3956  -43.4367  -54.7053 H         1 UNK         0.0650 
     75 H75        34.4030  -42.6877  -56.2832 H         1 UNK         0.0650 
     76 H76        32.5190  -43.0190  -53.3261 H         1 UNK         0.1397 
     77 H77        28.7574  -41.8286  -54.9645 H         1 UNK         0.1363 
     78 H78        32.0334  -42.7859  -57.5773 H         1 UNK         0.1355 
     79 H79        30.0629  -41.3302  -58.3334 H         1 UNK         0.0707 
     80 H80        29.3289  -42.9080  -58.2293 H         1 UNK         0.0707 
     81 H81        27.0562  -43.0828  -58.5633 H         1 UNK         0.1034 
     82 H82        25.7407  -42.0775  -58.0620 H         1 UNK         0.1034 
     83 H83        27.3724  -43.4860  -55.9260 H         1 UNK         0.0482 
     84 H84        24.6694  -44.7150  -54.9885 H         1 UNK         0.3460 
     85 H85        23.9498  -43.3670  -54.1421 H         1 UNK         0.3460 
     86 H86        26.8621  -45.5025  -56.4746 H         1 UNK         0.2989 
     87 H87        24.7634  -47.2852  -57.2486 H         1 UNK         0.0559 
     88 H88        25.0109  -46.5988  -60.2252 H         1 UNK         0.0848 
     89 H89        23.5208  -46.8360  -59.3265 H         1 UNK         0.0848 
     90 H90        24.6060  -48.1909  -59.5841 H         1 UNK         0.0848 
     91 H91        26.8248  -48.0340  -57.3271 H         1 UNK         0.3144 
     92 H92        29.4634  -48.0640  -59.3421 H         1 UNK         0.0727 
     93 H93        31.0619  -46.8262  -57.8954 H         1 UNK         0.0790 
     94 H94        29.7415  -45.8785  -57.2046 H         1 UNK         0.0790 
     95 H95        30.1601  -45.7130  -58.9019 H         1 UNK         0.0790 
     96 H96        28.9740  -48.1032  -56.4060 H         1 UNK         0.3215 
     97 H97        27.8547  -51.4131  -56.4338 H         1 UNK         0.0863 
     98 H98        30.5978  -50.5906  -55.3599 H         1 UNK         0.0808 
     99 H99        30.3002  -51.9338  -56.4506 H         1 UNK         0.0808 
    100 H100       29.6412  -51.9651  -54.8210 H         1 UNK         0.0808 
    101 H101       28.6284  -49.5228  -54.3641 H         1 UNK         0.3118 
    102 H102       25.5210  -47.7802  -54.3437 H         1 UNK         0.0546 
    103 H103       25.2310  -48.6586  -52.0444 H         1 UNK         0.0828 
    104 H104       26.3647  -49.9710  -52.3699 H         1 UNK         0.0828 
    105 H105       24.8241  -49.9018  -53.2139 H         1 UNK         0.0828 
    106 H106       27.5895  -47.7957  -52.4188 H         1 UNK         0.3005 
    107 H107       29.9417  -45.7181  -54.0256 H         1 UNK         0.1257 
    108 H108       27.8556  -44.9818  -51.9045 H         1 UNK         0.0775 
    109 H109       28.2000  -44.0754  -53.3535 H         1 UNK         0.0775 
    110 H110       29.0234  -41.7909  -52.6231 H         1 UNK         0.0840 
    111 H111       30.6526  -41.5520  -52.0488 H         1 UNK         0.0840 
    112 H112       30.0717  -46.4605  -51.4211 H         1 UNK         0.2987 
    113 H113       31.8797  -47.9144  -51.0226 H         1 UNK         0.0785 
    114 H114       30.9253  -49.6733  -49.4700 H         1 UNK         0.0798 
    115 H115       29.8042  -48.3650  -49.8020 H         1 UNK         0.0798 
    116 H116       29.5909  -49.9123  -50.5978 H         1 UNK         0.0798 
    117 H117       33.1205  -49.4224  -52.0044 H         1 UNK         0.3079 
    118 H118       33.5887  -52.2924  -51.9103 H         1 UNK         0.0794 
    119 H119       31.9927  -53.6493  -53.2468 H         1 UNK         0.0786 
    120 H120       33.5493  -53.5588  -54.0511 H         1 UNK         0.0786 
    121 H121       32.2056  -52.5777  -54.6268 H         1 UNK         0.0786 
    122 H122       33.8111  -50.6739  -54.4090 H         1 UNK         0.3032 
    123 H123       36.4701  -48.7627  -53.1030 H         1 UNK         0.1094 
    124 H124       36.7231  -50.8748  -55.3197 H         1 UNK         0.0794 
    125 H125       37.7319  -49.4378  -55.1426 H         1 UNK         0.0794 
    126 H126       37.7978  -50.7127  -53.9375 H         1 UNK         0.0794 
    127 H127       35.1976  -48.9726  -55.6915 H         1 UNK         0.3016 
@<TRIPOS>BOND
     1    1    2 1    
     2    1   67 1    
     3    1   68 1    
     4    1   69 1    
     5    2    3 2    
     6    2    4 am   BACKBONE|DICT|INTERRES
     7    4    5 1    
     8    4   70 1    
     9    5    6 1    
    10    5   65 1    
    11    5   71 1    
    12    6    7 1    
    13    6   72 1    
    14    6   73 1    
    15    7    8 1    
    16    8    9 1    
    17    8   74 1    
    18    8   75 1    
    19    9   10 ar   
    20    9   14 ar   
    21   10   11 ar   
    22   10   76 1    
    23   11   12 ar   
    24   11   48 1    
    25   12   13 ar   
    26   12   77 1    
    27   13   14 ar   
    28   13   15 1    
    29   14   78 1    
    30   15   16 1    
    31   15   79 1    
    32   15   80 1    
    33   16   17 1    
    34   17   18 1    
    35   17   81 1    
    36   17   82 1    
    37   18   19 1    
    38   18   22 1    
    39   18   83 1    
    40   19   20 am   BACKBONE|DICT|INTERRES
    41   19   21 2    
    42   20   84 1    
    43   20   85 1    
    44   22   23 am   BACKBONE|DICT|INTERRES
    45   22   86 1    
    46   23   24 2    
    47   23   25 1    
    48   25   26 1    
    49   25   27 1    
    50   25   87 1    
    51   26   88 1    
    52   26   89 1    
    53   26   90 1    
    54   27   28 am   BACKBONE|DICT|INTERRES
    55   27   91 1    
    56   28   29 2    
    57   28   30 1    
    58   30   31 1    
    59   30   32 1    
    60   30   92 1    
    61   31   93 1    
    62   31   94 1    
    63   31   95 1    
    64   32   33 am   BACKBONE|DICT|INTERRES
    65   32   96 1    
    66   33   34 2    
    67   33   35 1    
    68   35   36 1    
    69   35   37 1    
    70   35   97 1    
    71   36   98 1    
    72   36   99 1    
    73   36  100 1    
    74   37   38 am   BACKBONE|DICT|INTERRES
    75   37  101 1    
    76   38   39 2    
    77   38   40 1    
    78   40   41 1    
    79   40   42 1    
    80   40  102 1    
    81   41  103 1    
    82   41  104 1    
    83   41  105 1    
    84   42   43 am   BACKBONE|DICT|INTERRES
    85   42  106 1    
    86   43   44 2    
    87   43   45 1    
    88   45   46 1    
    89   45   49 1    
    90   45  107 1    
    91   46   47 1    
    92   46  108 1    
    93   46  109 1    
    94   47   48 1    
    95   48  110 1    
    96   48  111 1    
    97   49   50 am   BACKBONE|DICT|INTERRES
    98   49  112 1    
    99   50   51 2    
   100   50   52 1    
   101   52   53 1    
   102   52   54 1    
   103   52  113 1    
   104   53  114 1    
   105   53  115 1    
   106   53  116 1    
   107   54   55 am   BACKBONE|DICT|INTERRES
   108   54  117 1    
   109   55   56 2    
   110   55   57 1    
   111   57   58 1    
   112   57   59 1    
   113   57  118 1    
   114   58  119 1    
   115   58  120 1    
   116   58  121 1    
   117   59   60 am   BACKBONE|DICT|INTERRES
   118   59  122 1    
   119   60   61 2    
   120   60   62 1    
   121   62   63 1    
   122   62   64 1    
   123   62  123 1    
   124   63  124 1    
   125   63  125 1    
   126   63  126 1    
   127   64   65 am   BACKBONE|DICT|INTERRES
   128   64  127 1    
   129   65   66 2    
@<TRIPOS>SUBSTRUCTURE
     1 UNK         1 GROUP             0       ****    0 ROOT    
