@<TRIPOS>MOLECULE
3R134
127   129    1
SMALL
USER_CHARGES


@<TRIPOS>ATOM
      1 CA         34.0123  -45.2624  -49.3653 C.3       0 UNK        -0.1968 
      2 C          34.2458  -45.2042  -50.8675 C.2       0 UNK         0.4852 
      3 O          34.2507  -44.1155  -51.4423 O.2       0 UNK        -0.5359 
      4 N          34.4423  -46.3637  -51.5025 N.am      1 UNK        -0.4300 
      5 CA         34.6916  -46.5219  -52.9336 C.3       1 UNK         0.0863 
      6 C6         33.3712  -46.5399  -53.7553 C.3       11 UNK        -0.0953 
      7 S7         33.5797  -45.8693  -55.4390 S.3       11 UNK        -0.2369 
      8 C8         33.4915  -44.0714  -55.1467 C.3       11 UNK         0.0226 
      9 C9         32.0629  -43.5859  -54.9491 C.ar      11 UNK        -0.0699 
     10 C10        31.5146  -43.5130  -53.6671 C.ar      11 UNK        -0.0804 
     11 C11        30.1983  -43.0882  -53.4754 C.ar      11 UNK        -0.0871 
     12 C12        29.4331  -42.7032  -54.5808 C.ar      11 UNK        -0.1008 
     13 C13        29.9816  -42.7331  -55.8683 C.ar      11 UNK        -0.0735 
     14 C14        31.2955  -43.1821  -56.0449 C.ar      11 UNK        -0.0945 
     15 C15        29.1677  -42.2456  -57.0603 C.3       11 UNK         0.0169 
     16 S16        29.0134  -43.5215  -58.3451 S.3       11 UNK        -0.2669 
     17 C17        27.7511  -42.7827  -59.4376 C.3       11 UNK        -0.0850 
     18 CA         26.3066  -43.1665  -59.0236 C.3       10 UNK         0.0855 
     19 C          25.2694  -42.5648  -60.0093 C.2       10 UNK         0.5543 
     20 N          24.8102  -41.3468  -59.7569 N.am      10 UNK        -0.7343 
     21 O          24.9143  -43.1695  -61.0195 O.2       10 UNK        -0.5027 
     22 N          26.1681  -44.6182  -58.8607 N.am      10 UNK        -0.4495 
     23 C          25.1473  -45.2512  -58.2790 C.2       10 UNK         0.4903 
     24 O          24.1510  -44.6802  -57.8337 O.2       10 UNK        -0.4860 
     25 CA         25.2646  -46.7773  -58.1213 C.3       9 UNK         0.0227 
     26 CB         24.6273  -47.5161  -59.3136 C.3       9 UNK        -0.1964 
     27 N          26.6237  -47.2648  -57.8403 N.am      9 UNK        -0.4231 
     28 C          27.6993  -47.3269  -58.6410 C.2       9 UNK         0.5014 
     29 O          27.7260  -46.8900  -59.7922 O.2       9 UNK        -0.5270 
     30 CA         28.9627  -47.9929  -58.0608 C.3       8 UNK         0.0284 
     31 CB         29.8976  -46.9475  -57.4307 C.3       8 UNK        -0.1977 
     32 N          28.6562  -49.0226  -57.0657 N.am      8 UNK        -0.4342 
     33 C          28.0601  -50.1943  -57.3304 C.2       8 UNK         0.5039 
     34 O          27.7825  -50.5852  -58.4647 O.2       8 UNK        -0.5547 
     35 CA         27.6812  -51.0617  -56.1199 C.3       7 UNK         0.0281 
     36 CB         28.8834  -51.8845  -55.6297 C.3       7 UNK        -0.1963 
     37 N          27.1499  -50.2523  -55.0207 N.am      7 UNK        -0.4444 
     38 C          25.9176  -49.7247  -54.9974 C.2       7 UNK         0.5104 
     39 O          25.0725  -49.9146  -55.8716 O.2       7 UNK        -0.5100 
     40 CA         25.5689  -48.8212  -53.8013 C.3       6 UNK         0.0396 
     41 CB         24.9353  -49.6484  -52.6718 C.3       6 UNK        -0.1801 
     42 N          26.7219  -48.0845  -53.2756 N.am      6 UNK        -0.4747 
     43 C          27.3419  -47.0809  -53.9155 C.2       6 UNK         0.5012 
     44 O          27.0010  -46.6642  -55.0214 O.2       6 UNK        -0.5003 
     45 CA         28.5803  -46.4823  -53.2159 C.3       5 UNK         0.0782 
     46 C46        28.1365  -45.4223  -52.1772 C.3       11 UNK        -0.0868 
     47 S47        29.5318  -44.6605  -51.2831 S.3       11 UNK        -0.2515 
     48 C48        29.6270  -43.0181  -52.0663 C.3       11 UNK         0.0199 
     49 N          29.4403  -47.5232  -52.6311 N.am      5 UNK        -0.4607 
     50 C          30.0213  -48.5059  -53.3290 C.2       4 UNK         0.5031 
     51 O          29.8764  -48.6605  -54.5446 O.2       4 UNK        -0.5119 
     52 CA         30.8613  -49.5186  -52.5458 C.3       4 UNK         0.0263 
     53 CB         29.9506  -50.5388  -51.8343 C.3       4 UNK        -0.1967 
     54 N          31.7310  -50.1874  -53.5082 N.am      4 UNK        -0.4237 
     55 C          32.7773  -50.9756  -53.2430 C.2       3 UNK         0.4908 
     56 O          33.1439  -51.2762  -52.1070 O.2       3 UNK        -0.5102 
     57 CA         33.5804  -51.4746  -54.4523 C.3       3 UNK         0.0241 
     58 CB         32.7092  -51.7749  -55.6895 C.3       3 UNK        -0.1971 
     59 N          34.5563  -50.4406  -54.7797 N.am      3 UNK        -0.4139 
     60 C          35.8828  -50.5484  -54.6385 C.2       2 UNK         0.5016 
     61 O          36.4713  -51.5974  -54.3726 O.2       2 UNK        -0.5319 
     62 CA         36.6909  -49.2459  -54.7967 C.3       2 UNK         0.0286 
     63 CB         37.1673  -49.0783  -56.2486 C.3       2 UNK        -0.1963 
     64 N          35.9455  -48.0469  -54.3885 N.am      2 UNK        -0.4790 
     65 C          35.5373  -47.7920  -53.1371 C.2       1 UNK         0.5024 
     66 O          35.7889  -48.5235  -52.1753 O.2       1 UNK        -0.4888 
     67 H67        34.7729  -44.6819  -48.8441 H         1 UNK         0.0892 
     68 H68        33.0363  -44.8426  -49.1228 H         1 UNK         0.0892 
     69 H69        34.0455  -46.2838  -48.9863 H         1 UNK         0.0892 
     70 H70        34.5217  -47.2296  -50.9826 H         1 UNK         0.3107 
     71 H71        35.3149  -45.6834  -53.2518 H         1 UNK         0.0773 
     72 H72        32.9649  -47.5492  -53.8319 H         1 UNK         0.0680 
     73 H73        32.5919  -45.9685  -53.2541 H         1 UNK         0.0680 
     74 H74        33.9361  -43.5596  -56.0013 H         1 UNK         0.0650 
     75 H75        34.1050  -43.8060  -54.2846 H         1 UNK         0.0650 
     76 H76        32.1092  -43.7949  -52.8101 H         1 UNK         0.1397 
     77 H77        28.4180  -42.3589  -54.4367 H         1 UNK         0.1363 
     78 H78        31.7206  -43.2156  -57.0388 H         1 UNK         0.1355 
     79 H79        28.1697  -41.9403  -56.7421 H         1 UNK         0.0707 
     80 H80        29.6455  -41.3616  -57.4847 H         1 UNK         0.0707 
     81 H81        27.8754  -41.6982  -59.4505 H         1 UNK         0.1034 
     82 H82        27.9546  -43.1211  -60.4556 H         1 UNK         0.1034 
     83 H83        26.1178  -42.7285  -58.0413 H         1 UNK         0.0482 
     84 H84        24.1484  -40.9313  -60.3940 H         1 UNK         0.3460 
     85 H85        25.1010  -40.8378  -58.9366 H         1 UNK         0.3460 
     86 H86        26.9214  -45.1866  -59.2334 H         1 UNK         0.2989 
     87 H87        24.6864  -47.0388  -57.2335 H         1 UNK         0.0559 
     88 H88        23.5810  -47.2315  -59.4313 H         1 UNK         0.0848 
     89 H89        24.6563  -48.5964  -59.1701 H         1 UNK         0.0848 
     90 H90        25.1309  -47.2872  -60.2532 H         1 UNK         0.0848 
     91 H91        26.7759  -47.5163  -56.8693 H         1 UNK         0.3144 
     92 H92        29.4933  -48.4729  -58.8855 H         1 UNK         0.0727 
     93 H93        29.4036  -46.3867  -56.6359 H         1 UNK         0.0790 
     94 H94        30.2337  -46.2286  -58.1781 H         1 UNK         0.0790 
     95 H95        30.7896  -47.4099  -57.0071 H         1 UNK         0.0790 
     96 H96        28.9283  -48.8193  -56.1056 H         1 UNK         0.3215 
     97 H97        26.9049  -51.7598  -56.4416 H         1 UNK         0.0863 
     98 H98        28.6031  -52.5493  -54.8126 H         1 UNK         0.0808 
     99 H99        29.6949  -51.2481  -55.2807 H         1 UNK         0.0808 
    100 H100       29.2808  -52.5076  -56.4320 H         1 UNK         0.0808 
    101 H101       27.7883  -50.0089  -54.2785 H         1 UNK         0.3118 
    102 H102       24.8305  -48.0927  -54.1435 H         1 UNK         0.0546 
    103 H103       25.6301  -50.3869  -52.2700 H         1 UNK         0.0828 
    104 H104       24.0578  -50.1888  -53.0300 H         1 UNK         0.0828 
    105 H105       24.6070  -49.0124  -51.8495 H         1 UNK         0.0828 
    106 H106       27.0699  -48.3635  -52.3695 H         1 UNK         0.3005 
    107 H107       29.1672  -45.9759  -53.9868 H         1 UNK         0.1257 
    108 H108       27.4781  -45.8701  -51.4302 H         1 UNK         0.0775 
    109 H109       27.5501  -44.6386  -52.6612 H         1 UNK         0.0775 
    110 H110       28.6415  -42.5499  -52.0598 H         1 UNK         0.0840 
    111 H111       30.2699  -42.3792  -51.4590 H         1 UNK         0.0840 
    112 H112       29.6093  -47.4497  -51.6381 H         1 UNK         0.2987 
    113 H113       31.4758  -48.9852  -51.8177 H         1 UNK         0.0785 
    114 H114       29.2670  -50.0447  -51.1429 H         1 UNK         0.0798 
    115 H115       30.5309  -51.2525  -51.2497 H         1 UNK         0.0798 
    116 H116       29.3472  -51.1058  -52.5441 H         1 UNK         0.0798 
    117 H117       31.4993  -49.9611  -54.4682 H         1 UNK         0.3079 
    118 H118       34.0774  -52.4003  -54.1539 H         1 UNK         0.0794 
    119 H119       33.3085  -52.2213  -56.4832 H         1 UNK         0.0786 
    120 H120       32.2393  -50.8815  -56.1023 H         1 UNK         0.0786 
    121 H121       31.9200  -52.4877  -55.4471 H         1 UNK         0.0786 
    122 H122       34.1876  -49.5233  -54.9835 H         1 UNK         0.3032 
    123 H123       37.5699  -49.3307  -54.1533 H         1 UNK         0.1094 
    124 H124       36.3306  -48.9657  -56.9393 H         1 UNK         0.0794 
    125 H125       37.8128  -48.2064  -56.3566 H         1 UNK         0.0794 
    126 H126       37.7428  -49.9468  -56.5726 H         1 UNK         0.0794 
    127 H127       35.6933  -47.3940  -55.1191 H         1 UNK         0.3016 
@<TRIPOS>BOND
     1    1    2 1    
     2    1   67 1    
     3    1   68 1    
     4    1   69 1    
     5    2    3 2    
     6    2    4 am   BACKBONE|DICT|INTERRES
     7    4    5 1    
     8    4   70 1    
     9    5    6 1    
    10    5   65 1    
    11    5   71 1    
    12    6    7 1    
    13    6   72 1    
    14    6   73 1    
    15    7    8 1    
    16    8    9 1    
    17    8   74 1    
    18    8   75 1    
    19    9   10 ar   
    20    9   14 ar   
    21   10   11 ar   
    22   10   76 1    
    23   11   12 ar   
    24   11   48 1    
    25   12   13 ar   
    26   12   77 1    
    27   13   14 ar   
    28   13   15 1    
    29   14   78 1    
    30   15   16 1    
    31   15   79 1    
    32   15   80 1    
    33   16   17 1    
    34   17   18 1    
    35   17   81 1    
    36   17   82 1    
    37   18   19 1    
    38   18   22 1    
    39   18   83 1    
    40   19   20 am   BACKBONE|DICT|INTERRES
    41   19   21 2    
    42   20   84 1    
    43   20   85 1    
    44   22   23 am   BACKBONE|DICT|INTERRES
    45   22   86 1    
    46   23   24 2    
    47   23   25 1    
    48   25   26 1    
    49   25   27 1    
    50   25   87 1    
    51   26   88 1    
    52   26   89 1    
    53   26   90 1    
    54   27   28 am   BACKBONE|DICT|INTERRES
    55   27   91 1    
    56   28   29 2    
    57   28   30 1    
    58   30   31 1    
    59   30   32 1    
    60   30   92 1    
    61   31   93 1    
    62   31   94 1    
    63   31   95 1    
    64   32   33 am   BACKBONE|DICT|INTERRES
    65   32   96 1    
    66   33   34 2    
    67   33   35 1    
    68   35   36 1    
    69   35   37 1    
    70   35   97 1    
    71   36   98 1    
    72   36   99 1    
    73   36  100 1    
    74   37   38 am   BACKBONE|DICT|INTERRES
    75   37  101 1    
    76   38   39 2    
    77   38   40 1    
    78   40   41 1    
    79   40   42 1    
    80   40  102 1    
    81   41  103 1    
    82   41  104 1    
    83   41  105 1    
    84   42   43 am   BACKBONE|DICT|INTERRES
    85   42  106 1    
    86   43   44 2    
    87   43   45 1    
    88   45   46 1    
    89   45   49 1    
    90   45  107 1    
    91   46   47 1    
    92   46  108 1    
    93   46  109 1    
    94   47   48 1    
    95   48  110 1    
    96   48  111 1    
    97   49   50 am   BACKBONE|DICT|INTERRES
    98   49  112 1    
    99   50   51 2    
   100   50   52 1    
   101   52   53 1    
   102   52   54 1    
   103   52  113 1    
   104   53  114 1    
   105   53  115 1    
   106   53  116 1    
   107   54   55 am   BACKBONE|DICT|INTERRES
   108   54  117 1    
   109   55   56 2    
   110   55   57 1    
   111   57   58 1    
   112   57   59 1    
   113   57  118 1    
   114   58  119 1    
   115   58  120 1    
   116   58  121 1    
   117   59   60 am   BACKBONE|DICT|INTERRES
   118   59  122 1    
   119   60   61 2    
   120   60   62 1    
   121   62   63 1    
   122   62   64 1    
   123   62  123 1    
   124   63  124 1    
   125   63  125 1    
   126   63  126 1    
   127   64   65 am   BACKBONE|DICT|INTERRES
   128   64  127 1    
   129   65   66 2    
@<TRIPOS>SUBSTRUCTURE
     1 UNK         1 GROUP             0       ****    0 ROOT    
