@<TRIPOS>MOLECULE
3R134
127   129    1
SMALL
USER_CHARGES


@<TRIPOS>ATOM
      1 CA         34.7531  -42.5907  -56.6902 C.3       0 UNK        -0.1968 
      2 C          34.3262  -43.5748  -55.6122 C.2       0 UNK         0.4852 
      3 O          33.7170  -44.5981  -55.9242 O.2       0 UNK        -0.5359 
      4 N          34.6665  -43.2924  -54.3467 N.am      1 UNK        -0.4300 
      5 CA         34.2559  -44.0606  -53.1600 C.3       1 UNK         0.0863 
      6 C6         34.5389  -43.3024  -51.8365 C.3       11 UNK        -0.0953 
      7 S7         33.8750  -41.6020  -51.8082 S.3       11 UNK        -0.2369 
      8 C8         32.2116  -41.8542  -51.1077 C.3       11 UNK         0.0226 
      9 C9         31.2850  -42.5566  -52.0900 C.ar      11 UNK        -0.0699 
     10 C10        30.8557  -43.8672  -51.8505 C.ar      11 UNK        -0.0804 
     11 C11        30.0296  -44.5204  -52.7713 C.ar      11 UNK        -0.0871 
     12 C12        29.6257  -43.8476  -53.9268 C.ar      11 UNK        -0.1008 
     13 C13        30.0363  -42.5356  -54.1716 C.ar      11 UNK        -0.0735 
     14 C14        30.8654  -41.8940  -53.2483 C.ar      11 UNK        -0.0945 
     15 C15        29.5598  -41.8043  -55.4179 C.3       11 UNK         0.0169 
     16 S16        30.7722  -41.8490  -56.7767 S.3       11 UNK        -0.2669 
     17 C17        30.8416  -43.6200  -57.2141 C.3       11 UNK        -0.0850 
     18 CA         29.6617  -44.0742  -58.1252 C.3       10 UNK         0.0855 
     19 C          30.1558  -44.8730  -59.3615 C.2       10 UNK         0.5543 
     20 N          30.7924  -44.2005  -60.3103 N.am      10 UNK        -0.7343 
     21 O          29.9861  -46.0856  -59.4692 O.2       10 UNK        -0.5027 
     22 N          28.6798  -44.8563  -57.3628 N.am      10 UNK        -0.4495 
     23 C          27.4161  -44.5066  -57.1088 C.2       10 UNK         0.4903 
     24 O          26.9048  -43.4454  -57.4692 O.2       10 UNK        -0.4860 
     25 CA         26.5810  -45.5403  -56.3314 C.3       9 UNK         0.0227 
     26 CB         25.2419  -44.9712  -55.8286 C.3       9 UNK        -0.1964 
     27 N          26.3235  -46.7205  -57.1569 N.am      9 UNK        -0.4231 
     28 C          27.1918  -47.7202  -57.3460 C.2       9 UNK         0.5014 
     29 O          28.2992  -47.7728  -56.8078 O.2       9 UNK        -0.5270 
     30 CA         26.7690  -48.8204  -58.3216 C.3       8 UNK         0.0284 
     31 CB         27.6747  -48.8317  -59.5668 C.3       8 UNK        -0.1977 
     32 N          26.8282  -50.1098  -57.6410 N.am      8 UNK        -0.4342 
     33 C          26.0926  -51.1794  -57.9703 C.2       8 UNK         0.5039 
     34 O          25.2853  -51.1957  -58.9010 O.2       8 UNK        -0.5547 
     35 CA         26.2704  -52.4425  -57.1170 C.3       7 UNK         0.0281 
     36 CB         27.5903  -53.1535  -57.4610 C.3       7 UNK        -0.1963 
     37 N          26.2405  -52.1168  -55.6916 N.am      7 UNK        -0.4444 
     38 C          25.1506  -52.1891  -54.9151 C.2       7 UNK         0.5104 
     39 O          24.0544  -52.5891  -55.3092 O.2       7 UNK        -0.5100 
     40 CA         25.2976  -51.7569  -53.4426 C.3       6 UNK         0.0396 
     41 CB         25.5221  -52.9855  -52.5468 C.3       6 UNK        -0.1801 
     42 N          26.3798  -50.7958  -53.2168 N.am      6 UNK        -0.4747 
     43 C          26.3662  -49.5192  -53.6278 C.2       6 UNK         0.5012 
     44 O          25.4035  -48.9934  -54.1869 O.2       6 UNK        -0.5003 
     45 CA         27.6541  -48.6972  -53.4001 C.3       5 UNK         0.0782 
     46 C46        27.5751  -47.8645  -52.0875 C.3       11 UNK        -0.0868 
     47 S47        27.7754  -46.0801  -52.3842 S.3       11 UNK        -0.2515 
     48 C48        29.5856  -45.9574  -52.5387 C.3       11 UNK         0.0199 
     49 N          28.8948  -49.4873  -53.4528 N.am      5 UNK        -0.4607 
     50 C          29.2877  -50.2777  -54.4598 C.2       4 UNK         0.5031 
     51 O          28.5996  -50.5323  -55.4486 O.2       4 UNK        -0.5119 
     52 CA         30.6912  -50.8868  -54.3503 C.3       4 UNK         0.0263 
     53 CB         30.6928  -52.3745  -54.7443 C.3       4 UNK        -0.1967 
     54 N          31.6049  -50.1517  -55.2216 N.am      4 UNK        -0.4237 
     55 C          32.1080  -48.9449  -54.9357 C.2       3 UNK         0.4908 
     56 O          31.9147  -48.3558  -53.8694 O.2       3 UNK        -0.5102 
     57 CA         32.9357  -48.2713  -56.0430 C.3       3 UNK         0.0241 
     58 CB         32.0515  -47.2943  -56.8352 C.3       3 UNK        -0.1971 
     59 N          34.0863  -47.5495  -55.4948 N.am      3 UNK        -0.4139 
     60 C          35.1311  -48.1336  -54.8847 C.2       2 UNK         0.5016 
     61 O          35.2833  -49.3548  -54.8187 O.2       2 UNK        -0.5319 
     62 CA         36.1984  -47.2216  -54.2445 C.3       2 UNK         0.0286 
     63 CB         37.4612  -47.1713  -55.1204 C.3       2 UNK        -0.1963 
     64 N          35.7293  -45.8550  -54.0104 N.am      2 UNK        -0.4790 
     65 C          34.8162  -45.5006  -53.0948 C.2       1 UNK         0.5024 
     66 O          34.3996  -46.2697  -52.2281 O.2       1 UNK        -0.4888 
     67 H67        33.8757  -42.1722  -57.1820 H         1 UNK         0.0892 
     68 H68        35.3381  -41.7668  -56.2822 H         1 UNK         0.0892 
     69 H69        35.3566  -43.0970  -57.4429 H         1 UNK         0.0892 
     70 H70        35.1716  -42.4402  -54.1486 H         1 UNK         0.3107 
     71 H71        33.1772  -44.1877  -53.2496 H         1 UNK         0.0773 
     72 H72        34.1297  -43.8480  -50.9840 H         1 UNK         0.0680 
     73 H73        35.6148  -43.2380  -51.6639 H         1 UNK         0.0680 
     74 H74        31.7878  -40.8820  -50.8525 H         1 UNK         0.0650 
     75 H75        32.2895  -42.4094  -50.1716 H         1 UNK         0.0650 
     76 H76        31.1800  -44.3837  -50.9574 H         1 UNK         0.1397 
     77 H77        28.9838  -44.3505  -54.6339 H         1 UNK         0.1363 
     78 H78        31.1940  -40.8808  -53.4356 H         1 UNK         0.1355 
     79 H79        28.6103  -42.2126  -55.7619 H         1 UNK         0.0707 
     80 H80        29.3596  -40.7613  -55.1686 H         1 UNK         0.0707 
     81 H81        31.8057  -43.7656  -57.7055 H         1 UNK         0.1034 
     82 H82        30.9130  -44.2234  -56.3095 H         1 UNK         0.1034 
     83 H83        29.1670  -43.1929  -58.5382 H         1 UNK         0.0482 
     84 H84        30.9404  -43.2060  -60.2350 H         1 UNK         0.3460 
     85 H85        31.1273  -44.6976  -61.1206 H         1 UNK         0.3460 
     86 H86        28.9573  -45.8085  -57.1439 H         1 UNK         0.2989 
     87 H87        27.1576  -45.8369  -55.4529 H         1 UNK         0.0559 
     88 H88        25.4046  -44.0966  -55.1972 H         1 UNK         0.0848 
     89 H89        24.7023  -45.7047  -55.2288 H         1 UNK         0.0848 
     90 H90        24.5937  -44.6651  -56.6506 H         1 UNK         0.0848 
     91 H91        25.4484  -46.7330  -57.6615 H         1 UNK         0.3144 
     92 H92        25.7409  -48.6305  -58.6380 H         1 UNK         0.0727 
     93 H93        28.7124  -49.0438  -59.3050 H         1 UNK         0.0790 
     94 H94        27.6591  -47.8637  -60.0695 H         1 UNK         0.0790 
     95 H95        27.3507  -49.5798  -60.2902 H         1 UNK         0.0790 
     96 H96        27.4812  -50.1637  -56.8578 H         1 UNK         0.3215 
     97 H97        25.4539  -53.1276  -57.3562 H         1 UNK         0.0863 
     98 H98        27.7182  -54.0599  -56.8692 H         1 UNK         0.0808 
     99 H99        28.4564  -52.5149  -57.2873 H         1 UNK         0.0808 
    100 H100       27.6097  -53.4463  -58.5116 H         1 UNK         0.0808 
    101 H101       27.0857  -51.7012  -55.3120 H         1 UNK         0.3118 
    102 H102       24.3587  -51.2860  -53.1436 H         1 UNK         0.0546 
    103 H103       26.4553  -53.4966  -52.7869 H         1 UNK         0.0828 
    104 H104       24.7147  -53.7092  -52.6683 H         1 UNK         0.0828 
    105 H105       25.5500  -52.7097  -51.4926 H         1 UNK         0.0828 
    106 H106       27.2122  -51.1414  -52.7609 H         1 UNK         0.3005 
    107 H107       27.7043  -48.0188  -54.2538 H         1 UNK         0.1257 
    108 H108       28.3170  -48.1884  -51.3555 H         1 UNK         0.0775 
    109 H109       26.6158  -47.9856  -51.5792 H         1 UNK         0.0775 
    110 H110       30.0560  -46.3692  -51.6444 H         1 UNK         0.0840 
    111 H111       29.9191  -46.5709  -53.3771 H         1 UNK         0.0840 
    112 H112       29.5514  -49.3232  -52.7034 H         1 UNK         0.2987 
    113 H113       31.0379  -50.8109  -53.3172 H         1 UNK         0.0785 
    114 H114       29.9891  -52.9411  -54.1331 H         1 UNK         0.0798 
    115 H115       31.6775  -52.8194  -54.6003 H         1 UNK         0.0798 
    116 H116       30.4103  -52.5218  -55.7872 H         1 UNK         0.0798 
    117 H117       31.7712  -50.5481  -56.1352 H         1 UNK         0.3079 
    118 H118       33.3127  -49.0358  -56.7255 H         1 UNK         0.0794 
    119 H119       31.2086  -47.8104  -57.2979 H         1 UNK         0.0786 
    120 H120       32.6096  -46.8029  -57.6324 H         1 UNK         0.0786 
    121 H121       31.6392  -46.5189  -56.1887 H         1 UNK         0.0786 
    122 H122       34.0275  -46.5352  -55.5076 H         1 UNK         0.3032 
    123 H123       36.4633  -47.6628  -53.2808 H         1 UNK         0.1094 
    124 H124       38.2508  -46.5878  -54.6466 H         1 UNK         0.0794 
    125 H125       37.8587  -48.1732  -55.2895 H         1 UNK         0.0794 
    126 H126       37.2574  -46.7326  -56.0981 H         1 UNK         0.0794 
    127 H127       36.0097  -45.1566  -54.6838 H         1 UNK         0.3016 
@<TRIPOS>BOND
     1    1    2 1    
     2    1   67 1    
     3    1   68 1    
     4    1   69 1    
     5    2    3 2    
     6    2    4 am   BACKBONE|DICT|INTERRES
     7    4    5 1    
     8    4   70 1    
     9    5    6 1    
    10    5   65 1    
    11    5   71 1    
    12    6    7 1    
    13    6   72 1    
    14    6   73 1    
    15    7    8 1    
    16    8    9 1    
    17    8   74 1    
    18    8   75 1    
    19    9   10 ar   
    20    9   14 ar   
    21   10   11 ar   
    22   10   76 1    
    23   11   12 ar   
    24   11   48 1    
    25   12   13 ar   
    26   12   77 1    
    27   13   14 ar   
    28   13   15 1    
    29   14   78 1    
    30   15   16 1    
    31   15   79 1    
    32   15   80 1    
    33   16   17 1    
    34   17   18 1    
    35   17   81 1    
    36   17   82 1    
    37   18   19 1    
    38   18   22 1    
    39   18   83 1    
    40   19   20 am   BACKBONE|DICT|INTERRES
    41   19   21 2    
    42   20   84 1    
    43   20   85 1    
    44   22   23 am   BACKBONE|DICT|INTERRES
    45   22   86 1    
    46   23   24 2    
    47   23   25 1    
    48   25   26 1    
    49   25   27 1    
    50   25   87 1    
    51   26   88 1    
    52   26   89 1    
    53   26   90 1    
    54   27   28 am   BACKBONE|DICT|INTERRES
    55   27   91 1    
    56   28   29 2    
    57   28   30 1    
    58   30   31 1    
    59   30   32 1    
    60   30   92 1    
    61   31   93 1    
    62   31   94 1    
    63   31   95 1    
    64   32   33 am   BACKBONE|DICT|INTERRES
    65   32   96 1    
    66   33   34 2    
    67   33   35 1    
    68   35   36 1    
    69   35   37 1    
    70   35   97 1    
    71   36   98 1    
    72   36   99 1    
    73   36  100 1    
    74   37   38 am   BACKBONE|DICT|INTERRES
    75   37  101 1    
    76   38   39 2    
    77   38   40 1    
    78   40   41 1    
    79   40   42 1    
    80   40  102 1    
    81   41  103 1    
    82   41  104 1    
    83   41  105 1    
    84   42   43 am   BACKBONE|DICT|INTERRES
    85   42  106 1    
    86   43   44 2    
    87   43   45 1    
    88   45   46 1    
    89   45   49 1    
    90   45  107 1    
    91   46   47 1    
    92   46  108 1    
    93   46  109 1    
    94   47   48 1    
    95   48  110 1    
    96   48  111 1    
    97   49   50 am   BACKBONE|DICT|INTERRES
    98   49  112 1    
    99   50   51 2    
   100   50   52 1    
   101   52   53 1    
   102   52   54 1    
   103   52  113 1    
   104   53  114 1    
   105   53  115 1    
   106   53  116 1    
   107   54   55 am   BACKBONE|DICT|INTERRES
   108   54  117 1    
   109   55   56 2    
   110   55   57 1    
   111   57   58 1    
   112   57   59 1    
   113   57  118 1    
   114   58  119 1    
   115   58  120 1    
   116   58  121 1    
   117   59   60 am   BACKBONE|DICT|INTERRES
   118   59  122 1    
   119   60   61 2    
   120   60   62 1    
   121   62   63 1    
   122   62   64 1    
   123   62  123 1    
   124   63  124 1    
   125   63  125 1    
   126   63  126 1    
   127   64   65 am   BACKBONE|DICT|INTERRES
   128   64  127 1    
   129   65   66 2    
@<TRIPOS>SUBSTRUCTURE
     1 UNK         1 GROUP             0       ****    0 ROOT    
