@<TRIPOS>MOLECULE
3R134
127   129    1
SMALL
USER_CHARGES


@<TRIPOS>ATOM
      1 CA         32.9488  -43.1238  -49.7364 C.3       0 UNK        -0.1968 
      2 C          33.4698  -44.1395  -50.7425 C.2       0 UNK         0.4852 
      3 O          32.7000  -44.9784  -51.2074 O.2       0 UNK        -0.5359 
      4 N          34.7649  -44.0592  -51.0791 N.am      1 UNK        -0.4300 
      5 CA         35.4871  -44.9265  -52.0187 C.3       1 UNK         0.0863 
      6 C6         35.0027  -44.8094  -53.4924 C.3       11 UNK        -0.0953 
      7 S7         35.1521  -43.1094  -54.1325 S.3       11 UNK        -0.2369 
      8 C8         34.2451  -43.2478  -55.7123 C.3       11 UNK         0.0226 
      9 C9         32.7469  -43.5439  -55.6015 C.ar      11 UNK        -0.0699 
     10 C10        32.0135  -43.3153  -54.4289 C.ar      11 UNK        -0.0804 
     11 C11        30.6469  -43.6021  -54.3650 C.ar      11 UNK        -0.0871 
     12 C12        30.0003  -44.0851  -55.5071 C.ar      11 UNK        -0.1008 
     13 C13        30.7158  -44.3259  -56.6832 C.ar      11 UNK        -0.0735 
     14 C14        32.0849  -44.0521  -56.7231 C.ar      11 UNK        -0.0945 
     15 C15        30.0228  -44.9327  -57.8935 C.3       11 UNK         0.0169 
     16 S16        29.4992  -43.6998  -59.1323 S.3       11 UNK        -0.2669 
     17 C17        28.3040  -42.6397  -58.2359 C.3       11 UNK        -0.0850 
     18 CA         26.8404  -43.1591  -58.2286 C.3       10 UNK         0.0855 
     19 C          26.1606  -43.0909  -59.6289 C.2       10 UNK         0.5543 
     20 N          25.6055  -44.1736  -60.1625 N.am      10 UNK        -0.7343 
     21 O          26.1193  -42.0239  -60.2366 O.2       10 UNK        -0.5027 
     22 N          26.7513  -44.4655  -57.5678 N.am      10 UNK        -0.4495 
     23 C          25.6984  -44.9356  -56.8926 C.2       10 UNK         0.4903 
     24 O          24.6749  -44.2857  -56.6754 O.2       10 UNK        -0.4860 
     25 CA         25.8310  -46.3811  -56.3714 C.3       9 UNK         0.0227 
     26 CB         24.4710  -47.0233  -56.0296 C.3       9 UNK        -0.1964 
     27 N          26.6077  -47.2693  -57.2507 N.am      9 UNK        -0.4231 
     28 C          26.3592  -47.5464  -58.5413 C.2       9 UNK         0.5014 
     29 O          25.4715  -47.0078  -59.2034 O.2       9 UNK        -0.5270 
     30 CA         27.2553  -48.5958  -59.2125 C.3       8 UNK         0.0284 
     31 CB         28.4933  -47.9345  -59.8414 C.3       8 UNK        -0.1977 
     32 N          27.6754  -49.6321  -58.2649 N.am      8 UNK        -0.4342 
     33 C          27.0614  -50.8134  -58.1192 C.2       8 UNK         0.5039 
     34 O          26.0856  -51.1677  -58.7826 O.2       8 UNK        -0.5547 
     35 CA         27.6423  -51.7751  -57.0710 C.3       7 UNK         0.0281 
     36 CB         28.9951  -52.3415  -57.5349 C.3       7 UNK        -0.1963 
     37 N          27.7933  -51.1769  -55.7439 N.am      7 UNK        -0.4444 
     38 C          26.7815  -50.8670  -54.9202 C.2       7 UNK         0.5104 
     39 O          25.5925  -50.9741  -55.2198 O.2       7 UNK        -0.5100 
     40 CA         27.1606  -50.3677  -53.5165 C.3       6 UNK         0.0396 
     41 CB         27.6280  -51.5332  -52.6285 C.3       6 UNK        -0.1801 
     42 N          28.2139  -49.3555  -53.5969 N.am      6 UNK        -0.4747 
     43 C          28.0000  -48.0339  -53.5266 C.2       6 UNK         0.5012 
     44 O          26.9100  -47.5459  -53.2290 O.2       6 UNK        -0.5003 
     45 CA         29.1722  -47.0892  -53.8837 C.3       5 UNK         0.0782 
     46 C46        29.6150  -46.1947  -52.6956 C.3       11 UNK        -0.0868 
     47 S47        28.6514  -44.6417  -52.6406 S.3       11 UNK        -0.2515 
     48 C48        29.8970  -43.3684  -53.0535 C.3       11 UNK         0.0199 
     49 N          30.3053  -47.7782  -54.5086 N.am      5 UNK        -0.4607 
     50 C          30.3011  -48.2182  -55.7751 C.2       4 UNK         0.5031 
     51 O          29.3374  -48.0927  -56.5318 O.2       4 UNK        -0.5119 
     52 CA         31.5423  -48.9869  -56.2636 C.3       4 UNK         0.0263 
     53 CB         32.5782  -48.0068  -56.8357 C.3       4 UNK        -0.1967 
     54 N          32.1691  -49.8066  -55.2217 N.am      4 UNK        -0.4237 
     55 C          31.5430  -50.7395  -54.4893 C.2       3 UNK         0.4908 
     56 O          30.3818  -51.0913  -54.6956 O.2       3 UNK        -0.5102 
     57 CA         32.2953  -51.3465  -53.2910 C.3       3 UNK         0.0241 
     58 CB         32.7713  -52.7678  -53.6311 C.3       3 UNK        -0.1971 
     59 N          33.4315  -50.5655  -52.7817 N.am      3 UNK        -0.4139 
     60 C          33.4172  -49.2832  -52.3862 C.2       2 UNK         0.5016 
     61 O          32.4291  -48.5490  -52.4798 O.2       2 UNK        -0.5319 
     62 CA         34.7332  -48.7160  -51.8271 C.3       2 UNK         0.0286 
     63 CB         35.9971  -49.4258  -52.3667 C.3       2 UNK        -0.1963 
     64 N          34.7903  -47.2891  -52.1296 N.am      2 UNK        -0.4790 
     65 C          35.5383  -46.3786  -51.4965 C.2       1 UNK         0.5024 
     66 O          36.2698  -46.6439  -50.5405 O.2       1 UNK        -0.4888 
     67 H67        33.7323  -42.4481  -49.3937 H         1 UNK         0.0892 
     68 H68        32.5377  -43.6356  -48.8666 H         1 UNK         0.0892 
     69 H69        32.1569  -42.5249  -50.1852 H         1 UNK         0.0892 
     70 H70        35.3373  -43.3545  -50.6358 H         1 UNK         0.3107 
     71 H71        36.5219  -44.5803  -51.9991 H         1 UNK         0.0773 
     72 H72        35.5939  -45.4580  -54.1418 H         1 UNK         0.0680 
     73 H73        33.9665  -45.1350  -53.5894 H         1 UNK         0.0680 
     74 H74        34.3680  -42.3116  -56.2579 H         1 UNK         0.0650 
     75 H75        34.7276  -44.0209  -56.3125 H         1 UNK         0.0650 
     76 H76        32.5044  -42.9220  -53.5505 H         1 UNK         0.1397 
     77 H77        28.9393  -44.2870  -55.4764 H         1 UNK         0.1363 
     78 H78        32.6375  -44.2387  -57.6340 H         1 UNK         0.1355 
     79 H79        29.1761  -45.5383  -57.5761 H         1 UNK         0.0707 
     80 H80        30.7053  -45.6284  -58.3829 H         1 UNK         0.0707 
     81 H81        28.3409  -41.6465  -58.6872 H         1 UNK         0.1034 
     82 H82        28.6461  -42.4850  -57.2136 H         1 UNK         0.1034 
     83 H83        26.2746  -42.4545  -57.6160 H         1 UNK         0.0482 
     84 H84        25.1656  -44.1020  -61.0658 H         1 UNK         0.3460 
     85 H85        25.6067  -45.0636  -59.6761 H         1 UNK         0.3460 
     86 H86        27.5219  -45.0898  -57.7444 H         1 UNK         0.2989 
     87 H87        26.3971  -46.2979  -55.4456 H         1 UNK         0.0559 
     88 H88        23.8279  -47.0979  -56.9071 H         1 UNK         0.0848 
     89 H89        23.9366  -46.4376  -55.2807 H         1 UNK         0.0848 
     90 H90        24.6002  -48.0256  -55.6203 H         1 UNK         0.0848 
     91 H91        27.4209  -47.7109  -56.8328 H         1 UNK         0.3144 
     92 H92        26.6773  -49.0456  -60.0227 H         1 UNK         0.0727 
     93 H93        29.0744  -48.6564  -60.4153 H         1 UNK         0.0790 
     94 H94        29.1531  -47.5009  -59.0917 H         1 UNK         0.0790 
     95 H95        28.2055  -47.1343  -60.5250 H         1 UNK         0.0790 
     96 H96        28.4413  -49.3898  -57.6436 H         1 UNK         0.3215 
     97 H97        26.9476  -52.6129  -56.9774 H         1 UNK         0.0863 
     98 H98        29.3623  -53.1018  -56.8452 H         1 UNK         0.0808 
     99 H99        29.7578  -51.5662  -57.6097 H         1 UNK         0.0808 
    100 H100       28.9072  -52.8098  -58.5162 H         1 UNK         0.0808 
    101 H101       28.7456  -51.1009  -55.3893 H         1 UNK         0.3118 
    102 H102       26.2623  -49.9480  -53.0589 H         1 UNK         0.0546 
    103 H103       26.8497  -52.2928  -52.5440 H         1 UNK         0.0828 
    104 H104       27.8573  -51.1920  -51.6191 H         1 UNK         0.0828 
    105 H105       28.5176  -52.0234  -53.0246 H         1 UNK         0.0828 
    106 H106       29.1335  -49.6853  -53.8663 H         1 UNK         0.3005 
    107 H107       28.7660  -46.4360  -54.6564 H         1 UNK         0.1257 
    108 H108       30.6723  -45.9381  -52.7820 H         1 UNK         0.0775 
    109 H109       29.5230  -46.7150  -51.7404 H         1 UNK         0.0775 
    110 H110       29.4011  -42.3984  -53.1046 H         1 UNK         0.0840 
    111 H111       30.6005  -43.3105  -52.2215 H         1 UNK         0.0840 
    112 H112       31.1087  -47.9617  -53.9140 H         1 UNK         0.2987 
    113 H113       31.2231  -49.6577  -57.0631 H         1 UNK         0.0785 
    114 H114       32.1530  -47.4259  -57.6546 H         1 UNK         0.0798 
    115 H115       33.4470  -48.5317  -57.2333 H         1 UNK         0.0798 
    116 H116       32.9270  -47.2988  -56.0820 H         1 UNK         0.0798 
    117 H117       33.1221  -49.5808  -54.9796 H         1 UNK         0.3079 
    118 H118       31.5712  -51.4171  -52.4768 H         1 UNK         0.0794 
    119 H119       33.5312  -52.7623  -54.4136 H         1 UNK         0.0786 
    120 H120       31.9435  -53.3842  -53.9854 H         1 UNK         0.0786 
    121 H121       33.1904  -53.2674  -52.7574 H         1 UNK         0.0786 
    122 H122       34.3007  -51.0704  -52.6843 H         1 UNK         0.3032 
    123 H123       34.6914  -48.8402  -50.7426 H         1 UNK         0.1094 
    124 H124       36.9073  -48.9634  -51.9848 H         1 UNK         0.0794 
    125 H125       36.0342  -50.4717  -52.0601 H         1 UNK         0.0794 
    126 H126       36.0451  -49.3925  -53.4560 H         1 UNK         0.0794 
    127 H127       34.1072  -46.9727  -52.8059 H         1 UNK         0.3016 
@<TRIPOS>BOND
     1    1    2 1    
     2    1   67 1    
     3    1   68 1    
     4    1   69 1    
     5    2    3 2    
     6    2    4 am   BACKBONE|DICT|INTERRES
     7    4    5 1    
     8    4   70 1    
     9    5    6 1    
    10    5   65 1    
    11    5   71 1    
    12    6    7 1    
    13    6   72 1    
    14    6   73 1    
    15    7    8 1    
    16    8    9 1    
    17    8   74 1    
    18    8   75 1    
    19    9   10 ar   
    20    9   14 ar   
    21   10   11 ar   
    22   10   76 1    
    23   11   12 ar   
    24   11   48 1    
    25   12   13 ar   
    26   12   77 1    
    27   13   14 ar   
    28   13   15 1    
    29   14   78 1    
    30   15   16 1    
    31   15   79 1    
    32   15   80 1    
    33   16   17 1    
    34   17   18 1    
    35   17   81 1    
    36   17   82 1    
    37   18   19 1    
    38   18   22 1    
    39   18   83 1    
    40   19   20 am   BACKBONE|DICT|INTERRES
    41   19   21 2    
    42   20   84 1    
    43   20   85 1    
    44   22   23 am   BACKBONE|DICT|INTERRES
    45   22   86 1    
    46   23   24 2    
    47   23   25 1    
    48   25   26 1    
    49   25   27 1    
    50   25   87 1    
    51   26   88 1    
    52   26   89 1    
    53   26   90 1    
    54   27   28 am   BACKBONE|DICT|INTERRES
    55   27   91 1    
    56   28   29 2    
    57   28   30 1    
    58   30   31 1    
    59   30   32 1    
    60   30   92 1    
    61   31   93 1    
    62   31   94 1    
    63   31   95 1    
    64   32   33 am   BACKBONE|DICT|INTERRES
    65   32   96 1    
    66   33   34 2    
    67   33   35 1    
    68   35   36 1    
    69   35   37 1    
    70   35   97 1    
    71   36   98 1    
    72   36   99 1    
    73   36  100 1    
    74   37   38 am   BACKBONE|DICT|INTERRES
    75   37  101 1    
    76   38   39 2    
    77   38   40 1    
    78   40   41 1    
    79   40   42 1    
    80   40  102 1    
    81   41  103 1    
    82   41  104 1    
    83   41  105 1    
    84   42   43 am   BACKBONE|DICT|INTERRES
    85   42  106 1    
    86   43   44 2    
    87   43   45 1    
    88   45   46 1    
    89   45   49 1    
    90   45  107 1    
    91   46   47 1    
    92   46  108 1    
    93   46  109 1    
    94   47   48 1    
    95   48  110 1    
    96   48  111 1    
    97   49   50 am   BACKBONE|DICT|INTERRES
    98   49  112 1    
    99   50   51 2    
   100   50   52 1    
   101   52   53 1    
   102   52   54 1    
   103   52  113 1    
   104   53  114 1    
   105   53  115 1    
   106   53  116 1    
   107   54   55 am   BACKBONE|DICT|INTERRES
   108   54  117 1    
   109   55   56 2    
   110   55   57 1    
   111   57   58 1    
   112   57   59 1    
   113   57  118 1    
   114   58  119 1    
   115   58  120 1    
   116   58  121 1    
   117   59   60 am   BACKBONE|DICT|INTERRES
   118   59  122 1    
   119   60   61 2    
   120   60   62 1    
   121   62   63 1    
   122   62   64 1    
   123   62  123 1    
   124   63  124 1    
   125   63  125 1    
   126   63  126 1    
   127   64   65 am   BACKBONE|DICT|INTERRES
   128   64  127 1    
   129   65   66 2    
@<TRIPOS>SUBSTRUCTURE
     1 UNK         1 GROUP             0       ****    0 ROOT    
