@<TRIPOS>MOLECULE
3R134
127   129    1
SMALL
USER_CHARGES


@<TRIPOS>ATOM
      1 CA         32.7087  -43.4283  -59.0499 C.3       0 UNK        -0.1968 
      2 C          32.6695  -44.7619  -58.3180 C.2       0 UNK         0.4852 
      3 O          33.7261  -45.3365  -58.0533 O.2       0 UNK        -0.5359 
      4 N          31.4562  -45.2323  -57.9977 N.am      1 UNK        -0.4300 
      5 CA         31.1065  -46.4801  -57.3085 C.3       1 UNK         0.0863 
      6 C6         31.1329  -46.3644  -55.7566 C.3       11 UNK        -0.0953 
      7 S7         32.7779  -46.2635  -54.9579 S.3       11 UNK        -0.2369 
      8 C8         32.9204  -44.4967  -54.5295 C.3       11 UNK         0.0226 
      9 C9         31.8931  -44.0767  -53.4886 C.ar      11 UNK        -0.0699 
     10 C10        32.1066  -44.3374  -52.1321 C.ar      11 UNK        -0.0804 
     11 C11        31.1369  -43.9942  -51.1835 C.ar      11 UNK        -0.0871 
     12 C12        29.9419  -43.4002  -51.6048 C.ar      11 UNK        -0.1008 
     13 C13        29.7268  -43.1203  -52.9579 C.ar      11 UNK        -0.0735 
     14 C14        30.7192  -43.4345  -53.8880 C.ar      11 UNK        -0.0945 
     15 C15        28.4243  -42.4815  -53.4163 C.3       11 UNK         0.0169 
     16 S16        27.2111  -43.7397  -53.9327 S.3       11 UNK        -0.2669 
     17 C17        27.7607  -44.1454  -55.6308 C.3       11 UNK        -0.0850 
     18 CA         26.6318  -44.0618  -56.7029 C.3       10 UNK         0.0855 
     19 C          26.2379  -42.6071  -57.1175 C.2       10 UNK         0.5543 
     20 N          26.1551  -41.6806  -56.1742 N.am      10 UNK        -0.7343 
     21 O          25.9590  -42.3141  -58.2795 O.2       10 UNK        -0.5027 
     22 N          26.9061  -44.9254  -57.8649 N.am      10 UNK        -0.4495 
     23 C          27.9365  -44.8056  -58.7111 C.2       10 UNK         0.4903 
     24 O          28.9069  -44.0705  -58.5134 O.2       10 UNK        -0.4860 
     25 CA         27.8737  -45.6543  -59.9964 C.3       9 UNK         0.0227 
     26 CB         28.9801  -45.2779  -61.0010 C.3       9 UNK        -0.1964 
     27 N          27.9517  -47.0924  -59.7377 N.am      9 UNK        -0.4231 
     28 C          26.9757  -47.8657  -59.2434 C.2       9 UNK         0.5014 
     29 O          25.8709  -47.4369  -58.9023 O.2       9 UNK        -0.5270 
     30 CA         27.2608  -49.3794  -59.1338 C.3       8 UNK         0.0284 
     31 CB         28.6114  -49.8143  -59.7479 C.3       8 UNK        -0.1977 
     32 N          27.1476  -49.8729  -57.7563 N.am      8 UNK        -0.4342 
     33 C          27.8221  -49.4222  -56.6905 C.2       8 UNK         0.5039 
     34 O          28.6473  -48.5087  -56.7279 O.2       8 UNK        -0.5547 
     35 CA         27.5584  -50.1296  -55.3563 C.3       7 UNK         0.0281 
     36 CB         28.6858  -51.1267  -55.0434 C.3       7 UNK        -0.1963 
     37 N          27.4978  -49.1215  -54.3016 N.am      7 UNK        -0.4444 
     38 C          26.3781  -48.4862  -53.9331 C.2       7 UNK         0.5104 
     39 O          25.2602  -48.7963  -54.3488 O.2       7 UNK        -0.5100 
     40 CA         26.5076  -47.2779  -52.9821 C.3       6 UNK         0.0396 
     41 CB         25.4411  -47.2947  -51.8666 C.3       6 UNK        -0.1801 
     42 N          27.8529  -47.0544  -52.4306 N.am      6 UNK        -0.4747 
     43 C          28.5184  -47.8458  -51.5769 C.2       6 UNK         0.5012 
     44 O          28.0658  -48.8932  -51.1088 O.2       6 UNK        -0.5003 
     45 CA         29.9321  -47.3862  -51.1734 C.3       5 UNK         0.0782 
     46 C46        29.8928  -46.6574  -49.8082 C.3       11 UNK        -0.0868 
     47 S47        31.5334  -46.0282  -49.3183 S.3       11 UNK        -0.2515 
     48 C48        31.3839  -44.2543  -49.7030 C.3       11 UNK         0.0199 
     49 N          30.8595  -48.5209  -51.1635 N.am      5 UNK        -0.4607 
     50 C          31.2352  -49.2032  -52.2497 C.2       4 UNK         0.5031 
     51 O          30.8424  -48.9515  -53.3909 O.2       4 UNK        -0.5119 
     52 CA         32.1881  -50.3848  -52.0179 C.3       4 UNK         0.0263 
     53 CB         31.4165  -51.7136  -52.0521 C.3       4 UNK        -0.1967 
     54 N          33.2223  -50.4046  -53.0480 N.am      4 UNK        -0.4237 
     55 C          34.2693  -49.5741  -53.1010 C.2       3 UNK         0.4908 
     56 O          34.5726  -48.7990  -52.1932 O.2       3 UNK        -0.5102 
     57 CA         35.1159  -49.5916  -54.3873 C.3       3 UNK         0.0241 
     58 CB         36.1068  -50.7726  -54.3957 C.3       3 UNK        -0.1971 
     59 N          34.3218  -49.5282  -55.6246 N.am      3 UNK        -0.4139 
     60 C          33.4849  -50.4419  -56.1400 C.2       2 UNK         0.5016 
     61 O          33.2718  -51.5458  -55.6348 O.2       2 UNK        -0.5319 
     62 CA         32.7036  -49.9982  -57.3826 C.3       2 UNK         0.0286 
     63 CB         31.7031  -51.0541  -57.8914 C.3       2 UNK        -0.1963 
     64 N          32.0107  -48.7543  -57.0586 N.am      2 UNK        -0.4790 
     65 C          31.7540  -47.7529  -57.9059 C.2       1 UNK         0.5024 
     66 O          31.9713  -47.8200  -59.1185 O.2       1 UNK        -0.4888 
     67 H67        31.7091  -43.0282  -59.2224 H         1 UNK         0.0892 
     68 H68        33.2704  -42.6978  -58.4684 H         1 UNK         0.0892 
     69 H69        33.1979  -43.5452  -60.0165 H         1 UNK         0.0892 
     70 H70        30.6430  -44.6828  -58.2674 H         1 UNK         0.3107 
     71 H71        30.0554  -46.6000  -57.5667 H         1 UNK         0.0773 
     72 H72        30.6046  -47.2101  -55.3162 H         1 UNK         0.0680 
     73 H73        30.5349  -45.5059  -55.4672 H         1 UNK         0.0680 
     74 H74        32.8207  -43.8961  -55.4343 H         1 UNK         0.0650 
     75 H75        33.9247  -44.3086  -54.1479 H         1 UNK         0.0650 
     76 H76        33.0206  -44.8217  -51.8159 H         1 UNK         0.1397 
     77 H77        29.1798  -43.1475  -50.8800 H         1 UNK         0.1363 
     78 H78        30.5691  -43.2082  -54.9335 H         1 UNK         0.1355 
     79 H79        27.9937  -41.8961  -52.6024 H         1 UNK         0.0707 
     80 H80        28.6085  -41.7775  -54.2294 H         1 UNK         0.0707 
     81 H81        28.5966  -43.5122  -55.9261 H         1 UNK         0.1034 
     82 H82        28.1546  -45.1622  -55.5945 H         1 UNK         0.1034 
     83 H83        25.7277  -44.4876  -56.2663 H         1 UNK         0.0482 
     84 H84        26.3459  -41.9227  -55.2132 H         1 UNK         0.3460 
     85 H85        25.8837  -40.7418  -56.4206 H         1 UNK         0.3460 
     86 H86        26.1862  -45.5999  -58.1038 H         1 UNK         0.2989 
     87 H87        26.9135  -45.4427  -60.4717 H         1 UNK         0.0559 
     88 H88        28.9541  -44.2118  -61.2312 H         1 UNK         0.0848 
     89 H89        28.8579  -45.8114  -61.9439 H         1 UNK         0.0848 
     90 H90        29.9751  -45.5045  -60.6155 H         1 UNK         0.0848 
     91 H91        28.8318  -47.5378  -59.9534 H         1 UNK         0.3144 
     92 H92        26.4709  -49.8735  -59.7015 H         1 UNK         0.0727 
     93 H93        28.7413  -50.8945  -59.6799 H         1 UNK         0.0790 
     94 H94        29.4577  -49.3507  -59.2412 H         1 UNK         0.0790 
     95 H95        28.6699  -49.5551  -60.8060 H         1 UNK         0.0790 
     96 H96        26.4646  -50.6044  -57.6143 H         1 UNK         0.3215 
     97 H97        26.6144  -50.6767  -55.4060 H         1 UNK         0.0863 
     98 H98        28.5464  -51.5902  -54.0667 H         1 UNK         0.0808 
     99 H99        29.6645  -50.6451  -55.0490 H         1 UNK         0.0808 
    100 H100       28.7146  -51.9269  -55.7837 H         1 UNK         0.0808 
    101 H101       28.3873  -48.7764  -53.9661 H         1 UNK         0.3118 
    102 H102       26.2969  -46.4118  -53.6074 H         1 UNK         0.0546 
    103 H103       24.4350  -47.2921  -52.2876 H         1 UNK         0.0828 
    104 H104       25.5228  -46.4163  -51.2268 H         1 UNK         0.0828 
    105 H105       25.5228  -48.1804  -51.2364 H         1 UNK         0.0828 
    106 H106       28.3056  -46.2101  -52.7561 H         1 UNK         0.3005 
    107 H107       30.2927  -46.6859  -51.9310 H         1 UNK         0.1257 
    108 H108       29.5417  -47.3311  -49.0240 H         1 UNK         0.0775 
    109 H109       29.1833  -45.8279  -49.8320 H         1 UNK         0.0775 
    110 H110       30.5903  -43.8224  -49.0910 H         1 UNK         0.0840 
    111 H111       32.3047  -43.7515  -49.4042 H         1 UNK         0.0840 
    112 H112       31.2112  -48.7949  -50.2583 H         1 UNK         0.2987 
    113 H113       32.6658  -50.2809  -51.0412 H         1 UNK         0.0785 
    114 H114       32.0741  -52.5591  -51.8495 H         1 UNK         0.0798 
    115 H115       30.9459  -51.8803  -53.0219 H         1 UNK         0.0798 
    116 H116       30.6271  -51.7268  -51.2993 H         1 UNK         0.0798 
    117 H117       33.0474  -50.9784  -53.8698 H         1 UNK         0.3079 
    118 H118       35.7072  -48.6743  -54.3785 H         1 UNK         0.0794 
    119 H119       36.7571  -50.7379  -53.5206 H         1 UNK         0.0786 
    120 H120       36.7477  -50.7455  -55.2769 H         1 UNK         0.0786 
    121 H121       35.5985  -51.7371  -54.3804 H         1 UNK         0.0786 
    122 H122       34.3615  -48.6355  -56.0988 H         1 UNK         0.3032 
    123 H123       33.4411  -49.8153  -58.1677 H         1 UNK         0.1094 
    124 H124       31.2780  -50.7611  -58.8499 H         1 UNK         0.0794 
    125 H125       32.1907  -52.0180  -58.0427 H         1 UNK         0.0794 
    126 H126       30.8837  -51.2056  -57.1887 H         1 UNK         0.0794 
    127 H127       31.7775  -48.6219  -56.0812 H         1 UNK         0.3016 
@<TRIPOS>BOND
     1    1    2 1    
     2    1   67 1    
     3    1   68 1    
     4    1   69 1    
     5    2    3 2    
     6    2    4 am   BACKBONE|DICT|INTERRES
     7    4    5 1    
     8    4   70 1    
     9    5    6 1    
    10    5   65 1    
    11    5   71 1    
    12    6    7 1    
    13    6   72 1    
    14    6   73 1    
    15    7    8 1    
    16    8    9 1    
    17    8   74 1    
    18    8   75 1    
    19    9   10 ar   
    20    9   14 ar   
    21   10   11 ar   
    22   10   76 1    
    23   11   12 ar   
    24   11   48 1    
    25   12   13 ar   
    26   12   77 1    
    27   13   14 ar   
    28   13   15 1    
    29   14   78 1    
    30   15   16 1    
    31   15   79 1    
    32   15   80 1    
    33   16   17 1    
    34   17   18 1    
    35   17   81 1    
    36   17   82 1    
    37   18   19 1    
    38   18   22 1    
    39   18   83 1    
    40   19   20 am   BACKBONE|DICT|INTERRES
    41   19   21 2    
    42   20   84 1    
    43   20   85 1    
    44   22   23 am   BACKBONE|DICT|INTERRES
    45   22   86 1    
    46   23   24 2    
    47   23   25 1    
    48   25   26 1    
    49   25   27 1    
    50   25   87 1    
    51   26   88 1    
    52   26   89 1    
    53   26   90 1    
    54   27   28 am   BACKBONE|DICT|INTERRES
    55   27   91 1    
    56   28   29 2    
    57   28   30 1    
    58   30   31 1    
    59   30   32 1    
    60   30   92 1    
    61   31   93 1    
    62   31   94 1    
    63   31   95 1    
    64   32   33 am   BACKBONE|DICT|INTERRES
    65   32   96 1    
    66   33   34 2    
    67   33   35 1    
    68   35   36 1    
    69   35   37 1    
    70   35   97 1    
    71   36   98 1    
    72   36   99 1    
    73   36  100 1    
    74   37   38 am   BACKBONE|DICT|INTERRES
    75   37  101 1    
    76   38   39 2    
    77   38   40 1    
    78   40   41 1    
    79   40   42 1    
    80   40  102 1    
    81   41  103 1    
    82   41  104 1    
    83   41  105 1    
    84   42   43 am   BACKBONE|DICT|INTERRES
    85   42  106 1    
    86   43   44 2    
    87   43   45 1    
    88   45   46 1    
    89   45   49 1    
    90   45  107 1    
    91   46   47 1    
    92   46  108 1    
    93   46  109 1    
    94   47   48 1    
    95   48  110 1    
    96   48  111 1    
    97   49   50 am   BACKBONE|DICT|INTERRES
    98   49  112 1    
    99   50   51 2    
   100   50   52 1    
   101   52   53 1    
   102   52   54 1    
   103   52  113 1    
   104   53  114 1    
   105   53  115 1    
   106   53  116 1    
   107   54   55 am   BACKBONE|DICT|INTERRES
   108   54  117 1    
   109   55   56 2    
   110   55   57 1    
   111   57   58 1    
   112   57   59 1    
   113   57  118 1    
   114   58  119 1    
   115   58  120 1    
   116   58  121 1    
   117   59   60 am   BACKBONE|DICT|INTERRES
   118   59  122 1    
   119   60   61 2    
   120   60   62 1    
   121   62   63 1    
   122   62   64 1    
   123   62  123 1    
   124   63  124 1    
   125   63  125 1    
   126   63  126 1    
   127   64   65 am   BACKBONE|DICT|INTERRES
   128   64  127 1    
   129   65   66 2    
@<TRIPOS>SUBSTRUCTURE
     1 UNK         1 GROUP             0       ****    0 ROOT    
