@<TRIPOS>MOLECULE
3R134
127   129    1
SMALL
USER_CHARGES


@<TRIPOS>ATOM
      1 CA         33.0088  -46.5438  -50.5419 C.3       0 UNK        -0.1968 
      2 C          34.2690  -46.0947  -51.2679 C.2       0 UNK         0.4852 
      3 O          35.0024  -45.2481  -50.7546 O.2       0 UNK        -0.5359 
      4 N          34.5090  -46.6537  -52.4576 N.am      1 UNK        -0.4300 
      5 CA         35.6445  -46.3699  -53.3366 C.3       1 UNK         0.0863 
      6 C6         35.1888  -45.7613  -54.6978 C.3       11 UNK        -0.0953 
      7 S7         34.0548  -44.3412  -54.5336 S.3       11 UNK        -0.2369 
      8 C8         32.4744  -45.1988  -54.8134 C.3       11 UNK         0.0226 
      9 C9         31.2822  -44.2950  -54.5596 C.ar      11 UNK        -0.0699 
     10 C10        30.7932  -44.1258  -53.2607 C.ar      11 UNK        -0.0804 
     11 C11        29.6490  -43.3555  -53.0318 C.ar      11 UNK        -0.0871 
     12 C12        29.0072  -42.7384  -54.1096 C.ar      11 UNK        -0.1008 
     13 C13        29.4906  -42.8997  -55.4106 C.ar      11 UNK        -0.0735 
     14 C14        30.6349  -43.6709  -55.6293 C.ar      11 UNK        -0.0945 
     15 C15        28.7511  -42.2775  -56.5825 C.3       11 UNK         0.0169 
     16 S16        27.3962  -43.3635  -57.1151 S.3       11 UNK        -0.2669 
     17 C17        26.7784  -42.4542  -58.5691 C.3       11 UNK        -0.0850 
     18 CA         25.5641  -43.1630  -59.2383 C.3       10 UNK         0.0855 
     19 C          24.9201  -42.3067  -60.3721 C.2       10 UNK         0.5543 
     20 N          24.3536  -42.9080  -61.4113 N.am      10 UNK        -0.7343 
     21 O          24.9025  -41.0802  -60.2972 O.2       10 UNK        -0.5027 
     22 N          25.8417  -44.5669  -59.6011 N.am      10 UNK        -0.4495 
     23 C          26.7437  -44.9911  -60.4940 C.2       10 UNK         0.4903 
     24 O          27.4722  -44.2472  -61.1530 O.2       10 UNK        -0.4860 
     25 CA         26.8657  -46.5148  -60.6530 C.3       9 UNK         0.0227 
     26 CB         27.3356  -46.9151  -62.0639 C.3       9 UNK        -0.1964 
     27 N          27.8031  -47.0500  -59.6667 N.am      9 UNK        -0.4231 
     28 C          27.5021  -47.3327  -58.3930 C.2       9 UNK         0.5014 
     29 O          26.3798  -47.1856  -57.9013 O.2       9 UNK        -0.5270 
     30 CA         28.6666  -47.8486  -57.5264 C.3       8 UNK         0.0284 
     31 CB         29.3191  -46.6905  -56.7550 C.3       8 UNK        -0.1977 
     32 N          28.2612  -48.8801  -56.5706 N.am      8 UNK        -0.4342 
     33 C          27.7144  -50.0646  -56.8762 C.2       8 UNK         0.5039 
     34 O          27.5076  -50.4516  -58.0276 O.2       8 UNK        -0.5547 
     35 CA         27.3581  -50.9927  -55.7039 C.3       7 UNK         0.0281 
     36 CB         28.5338  -51.9347  -55.3935 C.3       7 UNK        -0.1963 
     37 N          27.0008  -50.2495  -54.4920 N.am      7 UNK        -0.4444 
     38 C          25.7509  -49.9045  -54.1518 C.2       7 UNK         0.5104 
     39 O          24.7598  -50.1791  -54.8293 O.2       7 UNK        -0.5100 
     40 CA         25.5528  -49.1567  -52.8175 C.3       6 UNK         0.0396 
     41 CB         25.0636  -50.1295  -51.7321 C.3       6 UNK        -0.1801 
     42 N          26.7590  -48.4780  -52.3361 N.am      6 UNK        -0.4747 
     43 C          27.2304  -47.3232  -52.8301 C.2       6 UNK         0.5012 
     44 O          26.6667  -46.6864  -53.7194 O.2       6 UNK        -0.5003 
     45 CA         28.5913  -46.8346  -52.2780 C.3       5 UNK         0.0782 
     46 C46        28.4398  -45.9101  -51.0419 C.3       11 UNK        -0.0868 
     47 S47        27.6484  -44.3002  -51.3771 S.3       11 UNK        -0.2515 
     48 C48        29.0823  -43.2045  -51.6292 C.3       11 UNK         0.0199 
     49 N          29.5097  -47.9406  -51.9669 N.am      5 UNK        -0.4607 
     50 C          29.9400  -48.8599  -52.8387 C.2       4 UNK         0.5031 
     51 O          29.5844  -48.9015  -54.0171 O.2       4 UNK        -0.5119 
     52 CA         30.8464  -49.9656  -52.2724 C.3       4 UNK         0.0263 
     53 CB         29.9893  -51.0918  -51.6704 C.3       4 UNK        -0.1967 
     54 N          31.7330  -50.5351  -53.2900 N.am      4 UNK        -0.4237 
     55 C          32.7208  -49.8633  -53.8921 C.2       3 UNK         0.4908 
     56 O          33.0189  -48.6952  -53.6233 O.2       3 UNK        -0.5102 
     57 CA         33.4957  -50.6173  -54.9822 C.3       3 UNK         0.0241 
     58 CB         32.7008  -50.6151  -56.2997 C.3       3 UNK        -0.1971 
     59 N          34.7672  -49.9320  -55.1935 N.am      3 UNK        -0.4139 
     60 C          35.9925  -50.4497  -55.0406 C.2       2 UNK         0.5016 
     61 O          36.2186  -51.6460  -54.8546 O.2       2 UNK        -0.5319 
     62 CA         37.1694  -49.4509  -55.0816 C.3       2 UNK         0.0286 
     63 CB         37.8200  -49.4399  -56.4743 C.3       2 UNK        -0.1963 
     64 N          36.7540  -48.0860  -54.7304 N.am      2 UNK        -0.4790 
     65 C          36.4168  -47.6990  -53.4899 C.2       1 UNK         0.5024 
     66 O          36.6485  -48.3858  -52.4918 O.2       1 UNK        -0.4888 
     67 H67        32.4234  -45.6784  -50.2328 H         1 UNK         0.0892 
     68 H68        32.3800  -47.1672  -51.1768 H         1 UNK         0.0892 
     69 H69        33.2714  -47.1155  -49.6523 H         1 UNK         0.0892 
     70 H70        33.8942  -47.3932  -52.7991 H         1 UNK         0.3107 
     71 H71        36.3271  -45.6652  -52.8578 H         1 UNK         0.0773 
     72 H72        36.0570  -45.4184  -55.2632 H         1 UNK         0.0680 
     73 H73        34.6945  -46.5108  -55.3188 H         1 UNK         0.0680 
     74 H74        32.4496  -45.5804  -55.8354 H         1 UNK         0.0650 
     75 H75        32.4048  -46.0710  -54.1628 H         1 UNK         0.0650 
     76 H76        31.2901  -44.6148  -52.4343 H         1 UNK         0.1397 
     77 H77        28.1112  -42.1567  -53.9395 H         1 UNK         0.1363 
     78 H78        31.0033  -43.8106  -56.6363 H         1 UNK         0.1355 
     79 H79        28.3509  -41.3024  -56.3004 H         1 UNK         0.0707 
     80 H80        29.4340  -42.1076  -57.4164 H         1 UNK         0.0707 
     81 H81        26.5013  -41.4508  -58.2404 H         1 UNK         0.1034 
     82 H82        27.5925  -42.3266  -59.2843 H         1 UNK         0.1034 
     83 H83        24.7824  -43.2233  -58.4803 H         1 UNK         0.0482 
     84 H84        24.3495  -43.9130  -61.4781 H         1 UNK         0.3460 
     85 H85        23.9293  -42.3500  -62.1356 H         1 UNK         0.3460 
     86 H86        25.3333  -45.2633  -59.0726 H         1 UNK         0.2989 
     87 H87        25.8806  -46.9596  -60.4951 H         1 UNK         0.0559 
     88 H88        26.6630  -46.5174  -62.8250 H         1 UNK         0.0848 
     89 H89        27.3525  -47.9987  -62.1830 H         1 UNK         0.0848 
     90 H90        28.3352  -46.5387  -62.2852 H         1 UNK         0.0848 
     91 H91        28.7590  -47.1598  -59.9739 H         1 UNK         0.3144 
     92 H92        29.4178  -48.2957  -58.1807 H         1 UNK         0.0727 
     93 H93        28.6186  -46.2274  -56.0577 H         1 UNK         0.0790 
     94 H94        29.6616  -45.9101  -57.4354 H         1 UNK         0.0790 
     95 H95        30.1841  -47.0280  -56.1833 H         1 UNK         0.0790 
     96 H96        28.4726  -48.6938  -55.5955 H         1 UNK         0.3215 
     97 H97        26.5117  -51.6082  -56.0171 H         1 UNK         0.0863 
     98 H98        28.2822  -52.6341  -54.5962 H         1 UNK         0.0808 
     99 H99        29.4251  -51.3846  -55.0918 H         1 UNK         0.0808 
    100 H100       28.7995  -52.5263  -56.2707 H         1 UNK         0.0808 
    101 H101       27.7695  -49.9178  -53.9235 H         1 UNK         0.3118 
    102 H102       24.7735  -48.4077  -52.9747 H         1 UNK         0.0546 
    103 H103       25.8006  -50.9054  -51.5213 H         1 UNK         0.0828 
    104 H104       24.1449  -50.6297  -52.0420 H         1 UNK         0.0828 
    105 H105       24.8461  -49.6084  -50.7996 H         1 UNK         0.0828 
    106 H106       27.2804  -48.9364  -51.6029 H         1 UNK         0.3005 
    107 H107       29.0541  -46.2627  -53.0846 H         1 UNK         0.1257 
    108 H108       29.4189  -45.7169  -50.6007 H         1 UNK         0.0775 
    109 H109       27.8646  -46.4124  -50.2618 H         1 UNK         0.0775 
    110 H110       28.7637  -42.1718  -51.4796 H         1 UNK         0.0840 
    111 H111       29.8445  -43.3962  -50.8724 H         1 UNK         0.0840 
    112 H112       29.8174  -48.0023  -51.0072 H         1 UNK         0.2987 
    113 H113       31.4700  -49.5377  -51.4847 H         1 UNK         0.0785 
    114 H114       30.6119  -51.8732  -51.2342 H         1 UNK         0.0798 
    115 H115       29.3449  -51.5564  -52.4177 H         1 UNK         0.0798 
    116 H116       29.3455  -50.7161  -50.8740 H         1 UNK         0.0798 
    117 H117       31.5365  -51.4805  -53.5835 H         1 UNK         0.3079 
    118 H118       33.6613  -51.6449  -54.6519 H         1 UNK         0.0794 
    119 H119       31.7525  -51.1423  -56.1898 H         1 UNK         0.0786 
    120 H120       33.2557  -51.1112  -57.0962 H         1 UNK         0.0786 
    121 H121       32.4720  -49.6015  -56.6325 H         1 UNK         0.0786 
    122 H122       34.6901  -48.9285  -55.2680 H         1 UNK         0.3032 
    123 H123       37.9129  -49.7895  -54.3560 H         1 UNK         0.1094 
    124 H124       38.6890  -48.7821  -56.5013 H         1 UNK         0.0794 
    125 H125       38.1628  -50.4380  -56.7513 H         1 UNK         0.0794 
    126 H126       37.1229  -49.1097  -57.2456 H         1 UNK         0.0794 
    127 H127       36.5843  -47.4539  -55.5001 H         1 UNK         0.3016 
@<TRIPOS>BOND
     1    1    2 1    
     2    1   67 1    
     3    1   68 1    
     4    1   69 1    
     5    2    3 2    
     6    2    4 am   BACKBONE|DICT|INTERRES
     7    4    5 1    
     8    4   70 1    
     9    5    6 1    
    10    5   65 1    
    11    5   71 1    
    12    6    7 1    
    13    6   72 1    
    14    6   73 1    
    15    7    8 1    
    16    8    9 1    
    17    8   74 1    
    18    8   75 1    
    19    9   10 ar   
    20    9   14 ar   
    21   10   11 ar   
    22   10   76 1    
    23   11   12 ar   
    24   11   48 1    
    25   12   13 ar   
    26   12   77 1    
    27   13   14 ar   
    28   13   15 1    
    29   14   78 1    
    30   15   16 1    
    31   15   79 1    
    32   15   80 1    
    33   16   17 1    
    34   17   18 1    
    35   17   81 1    
    36   17   82 1    
    37   18   19 1    
    38   18   22 1    
    39   18   83 1    
    40   19   20 am   BACKBONE|DICT|INTERRES
    41   19   21 2    
    42   20   84 1    
    43   20   85 1    
    44   22   23 am   BACKBONE|DICT|INTERRES
    45   22   86 1    
    46   23   24 2    
    47   23   25 1    
    48   25   26 1    
    49   25   27 1    
    50   25   87 1    
    51   26   88 1    
    52   26   89 1    
    53   26   90 1    
    54   27   28 am   BACKBONE|DICT|INTERRES
    55   27   91 1    
    56   28   29 2    
    57   28   30 1    
    58   30   31 1    
    59   30   32 1    
    60   30   92 1    
    61   31   93 1    
    62   31   94 1    
    63   31   95 1    
    64   32   33 am   BACKBONE|DICT|INTERRES
    65   32   96 1    
    66   33   34 2    
    67   33   35 1    
    68   35   36 1    
    69   35   37 1    
    70   35   97 1    
    71   36   98 1    
    72   36   99 1    
    73   36  100 1    
    74   37   38 am   BACKBONE|DICT|INTERRES
    75   37  101 1    
    76   38   39 2    
    77   38   40 1    
    78   40   41 1    
    79   40   42 1    
    80   40  102 1    
    81   41  103 1    
    82   41  104 1    
    83   41  105 1    
    84   42   43 am   BACKBONE|DICT|INTERRES
    85   42  106 1    
    86   43   44 2    
    87   43   45 1    
    88   45   46 1    
    89   45   49 1    
    90   45  107 1    
    91   46   47 1    
    92   46  108 1    
    93   46  109 1    
    94   47   48 1    
    95   48  110 1    
    96   48  111 1    
    97   49   50 am   BACKBONE|DICT|INTERRES
    98   49  112 1    
    99   50   51 2    
   100   50   52 1    
   101   52   53 1    
   102   52   54 1    
   103   52  113 1    
   104   53  114 1    
   105   53  115 1    
   106   53  116 1    
   107   54   55 am   BACKBONE|DICT|INTERRES
   108   54  117 1    
   109   55   56 2    
   110   55   57 1    
   111   57   58 1    
   112   57   59 1    
   113   57  118 1    
   114   58  119 1    
   115   58  120 1    
   116   58  121 1    
   117   59   60 am   BACKBONE|DICT|INTERRES
   118   59  122 1    
   119   60   61 2    
   120   60   62 1    
   121   62   63 1    
   122   62   64 1    
   123   62  123 1    
   124   63  124 1    
   125   63  125 1    
   126   63  126 1    
   127   64   65 am   BACKBONE|DICT|INTERRES
   128   64  127 1    
   129   65   66 2    
@<TRIPOS>SUBSTRUCTURE
     1 UNK         1 GROUP             0       ****    0 ROOT    
