@<TRIPOS>MOLECULE
3R134
127   129    1
SMALL
USER_CHARGES


@<TRIPOS>ATOM
      1 CA         32.1877  -45.2733  -49.7403 C.3       0 UNK        -0.1968 
      2 C          33.6549  -45.2832  -50.1375 C.2       0 UNK         0.4852 
      3 O          34.4952  -45.7502  -49.3674 O.2       0 UNK        -0.5359 
      4 N          33.9670  -44.7757  -51.3381 N.am      1 UNK        -0.4300 
      5 CA         35.3228  -44.7581  -51.9071 C.3       1 UNK         0.0863 
      6 C6         35.4445  -43.7934  -53.1125 C.3       11 UNK        -0.0953 
      7 S7         34.9812  -42.0832  -52.6849 S.3       11 UNK        -0.2369 
      8 C8         34.0008  -41.5885  -54.1422 C.3       11 UNK         0.0226 
      9 C9         32.6934  -42.3596  -54.3114 C.ar      11 UNK        -0.0699 
     10 C10        31.8398  -42.5839  -53.2251 C.ar      11 UNK        -0.0804 
     11 C11        30.6203  -43.2481  -53.3935 C.ar      11 UNK        -0.0871 
     12 C12        30.2398  -43.6497  -54.6791 C.ar      11 UNK        -0.1008 
     13 C13        31.0854  -43.4468  -55.7711 C.ar      11 UNK        -0.0735 
     14 C14        32.3132  -42.8069  -55.5812 C.ar      11 UNK        -0.0945 
     15 C15        30.6559  -43.9040  -57.1556 C.3       11 UNK         0.0169 
     16 S16        29.7057  -42.5991  -57.9901 S.3       11 UNK        -0.2669 
     17 C17        29.1180  -43.4675  -59.4828 C.3       11 UNK        -0.0850 
     18 CA         27.5976  -43.7620  -59.4180 C.3       10 UNK         0.0855 
     19 C          27.0718  -44.2541  -60.7910 C.2       10 UNK         0.5543 
     20 N          26.3959  -43.3989  -61.5438 N.am      10 UNK        -0.7343 
     21 O          27.3145  -45.3883  -61.1957 O.2       10 UNK        -0.5027 
     22 N          27.2815  -44.7335  -58.3637 N.am      10 UNK        -0.4495 
     23 C          26.0896  -44.8509  -57.7670 C.2       10 UNK         0.4903 
     24 O          25.1445  -44.0836  -57.9581 O.2       10 UNK        -0.4860 
     25 CA         25.9457  -46.0424  -56.8013 C.3       9 UNK         0.0227 
     26 CB         24.5239  -46.1959  -56.2206 C.3       9 UNK        -0.1964 
     27 N          26.4120  -47.2954  -57.4082 N.am      9 UNK        -0.4231 
     28 C          25.9194  -47.9038  -58.4990 C.2       9 UNK         0.5014 
     29 O          24.9222  -47.5255  -59.1147 O.2       9 UNK        -0.5270 
     30 CA         26.6649  -49.1508  -58.9930 C.3       8 UNK         0.0284 
     31 CB         27.8905  -48.7510  -59.8335 C.3       8 UNK        -0.1977 
     32 N          27.0936  -50.0087  -57.8839 N.am      8 UNK        -0.4342 
     33 C          26.6878  -51.2719  -57.7042 C.2       8 UNK         0.5039 
     34 O          25.8746  -51.8432  -58.4325 O.2       8 UNK        -0.5547 
     35 CA         27.3045  -52.0547  -56.5340 C.3       7 UNK         0.0281 
     36 CB         28.6327  -52.7022  -56.9585 C.3       7 UNK        -0.1963 
     37 N          27.5163  -51.2614  -55.3222 N.am      7 UNK        -0.4444 
     38 C          26.5374  -50.8614  -54.4987 C.2       7 UNK         0.5104 
     39 O          25.3380  -51.0158  -54.7297 O.2       7 UNK        -0.5100 
     40 CA         26.9721  -50.2067  -53.1784 C.3       6 UNK         0.0396 
     41 CB         27.4546  -51.2713  -52.1791 C.3       6 UNK        -0.1801 
     42 N          28.0339  -49.2248  -53.3939 N.am      6 UNK        -0.4747 
     43 C          27.8160  -47.9249  -53.6371 C.2       6 UNK         0.5012 
     44 O          26.6958  -47.4148  -53.6412 O.2       6 UNK        -0.5003 
     45 CA         29.0481  -47.0511  -53.9704 C.3       5 UNK         0.0782 
     46 C46        29.5985  -46.3185  -52.7178 C.3       11 UNK        -0.0868 
     47 S47        28.5588  -44.8782  -52.2758 S.3       11 UNK        -0.2515 
     48 C48        29.7334  -43.4789  -52.1695 C.3       11 UNK         0.0199 
     49 N          30.0921  -47.7968  -54.6850 N.am      5 UNK        -0.4607 
     50 C          29.9234  -48.3131  -55.9128 C.2       4 UNK         0.5031 
     51 O          28.8952  -48.1650  -56.5717 O.2       4 UNK        -0.5119 
     52 CA         31.0483  -49.1810  -56.5017 C.3       4 UNK         0.0263 
     53 CB         31.9804  -48.3140  -57.3618 C.3       4 UNK        -0.1967 
     54 N          31.8394  -49.9004  -55.5017 N.am      4 UNK        -0.4237 
     55 C          31.3646  -50.7098  -54.5426 C.2       3 UNK         0.4908 
     56 O          30.1808  -51.0341  -54.4485 O.2       3 UNK        -0.5102 
     57 CA         32.3586  -51.1896  -53.4679 C.3       3 UNK         0.0241 
     58 CB         32.7454  -52.6554  -53.7187 C.3       3 UNK        -0.1971 
     59 N          33.5779  -50.3756  -53.3543 N.am      3 UNK        -0.4139 
     60 C          33.6151  -49.0599  -53.0981 C.2       2 UNK         0.5016 
     61 O          32.6083  -48.3642  -52.9133 O.2       2 UNK        -0.5319 
     62 CA         35.0007  -48.4027  -53.1293 C.3       2 UNK         0.0286 
     63 CB         35.6076  -48.4487  -54.5472 C.3       2 UNK        -0.1963 
     64 N          34.8360  -47.0205  -52.7034 N.am      2 UNK        -0.4790 
     65 C          35.7917  -46.1689  -52.3185 C.2       1 UNK         0.5024 
     66 O          36.9900  -46.4516  -52.2825 O.2       1 UNK        -0.4888 
     67 H67        31.5565  -45.5698  -50.5765 H         1 UNK         0.0892 
     68 H68        32.0066  -45.9733  -48.9249 H         1 UNK         0.0892 
     69 H69        31.8908  -44.2794  -49.4069 H         1 UNK         0.0892 
     70 H70        33.2449  -44.3815  -51.9231 H         1 UNK         0.3107 
     71 H71        36.0057  -44.4097  -51.1289 H         1 UNK         0.0773 
     72 H72        34.8293  -44.1432  -53.9438 H         1 UNK         0.0680 
     73 H73        36.4714  -43.7722  -53.4829 H         1 UNK         0.0680 
     74 H74        34.6279  -41.6921  -55.0290 H         1 UNK         0.0650 
     75 H75        33.7647  -40.5275  -54.0553 H         1 UNK         0.0650 
     76 H76        32.1224  -42.2265  -52.2441 H         1 UNK         0.1397 
     77 H77        29.2791  -44.1141  -54.8415 H         1 UNK         0.1363 
     78 H78        32.9592  -42.6322  -56.4308 H         1 UNK         0.1355 
     79 H79        30.0512  -44.8087  -57.0769 H         1 UNK         0.0707 
     80 H80        31.5276  -44.1635  -57.7578 H         1 UNK         0.0707 
     81 H81        29.3424  -42.8247  -60.3363 H         1 UNK         0.1034 
     82 H82        29.6895  -44.3839  -59.6416 H         1 UNK         0.1034 
     83 H83        27.0910  -42.8244  -59.1784 H         1 UNK         0.0482 
     84 H84        26.0623  -43.6985  -62.4467 H         1 UNK         0.3460 
     85 H85        26.2001  -42.4639  -61.2222 H         1 UNK         0.3460 
     86 H86        27.9795  -45.4391  -58.1880 H         1 UNK         0.2989 
     87 H87        26.6166  -45.8380  -55.9664 H         1 UNK         0.0559 
     88 H88        24.2308  -45.3013  -55.6701 H         1 UNK         0.0848 
     89 H89        24.4711  -47.0342  -55.5258 H         1 UNK         0.0848 
     90 H90        23.7784  -46.3563  -56.9997 H         1 UNK         0.0848 
     91 H91        27.2784  -47.6651  -57.0191 H         1 UNK         0.3144 
     92 H92        25.9789  -49.6901  -59.6496 H         1 UNK         0.0727 
     93 H93        28.6217  -48.1882  -59.2528 H         1 UNK         0.0790 
     94 H94        27.5953  -48.1257  -60.6773 H         1 UNK         0.0790 
     95 H95        28.3922  -49.6285  -60.2415 H         1 UNK         0.0790 
     96 H96        27.7535  -49.6038  -57.2280 H         1 UNK         0.3215 
     97 H97        26.6100  -52.8600  -56.2836 H         1 UNK         0.0863 
     98 H98        29.0400  -53.3286  -56.1646 H         1 UNK         0.0808 
     99 H99        29.3849  -51.9562  -57.2130 H         1 UNK         0.0808 
    100 H100       28.4948  -53.3379  -57.8342 H         1 UNK         0.0808 
    101 H101       28.4824  -51.1285  -55.0262 H         1 UNK         0.3118 
    102 H102       26.0988  -49.7174  -52.7415 H         1 UNK         0.0546 
    103 H103       28.3334  -51.8056  -52.5420 H         1 UNK         0.0828 
    104 H104       26.6762  -52.0129  -51.9946 H         1 UNK         0.0828 
    105 H105       27.7091  -50.8243  -51.2182 H         1 UNK         0.0828 
    106 H106       28.9765  -49.5871  -53.4756 H         1 UNK         0.3005 
    107 H107       28.6930  -46.2965  -54.6738 H         1 UNK         0.1257 
    108 H108       29.6708  -46.9920  -51.8616 H         1 UNK         0.0775 
    109 H109       30.6156  -45.9724  -52.9053 H         1 UNK         0.0775 
    110 H110       29.1594  -42.5690  -51.9903 H         1 UNK         0.0840 
    111 H111       30.3520  -43.6219  -51.2843 H         1 UNK         0.0840 
    112 H112       30.9565  -47.9722  -54.1831 H         1 UNK         0.2987 
    113 H113       30.5811  -49.9253  -57.1479 H         1 UNK         0.0785 
    114 H114       31.4196  -47.7857  -58.1345 H         1 UNK         0.0798 
    115 H115       32.7320  -48.9195  -57.8685 H         1 UNK         0.0798 
    116 H116       32.4992  -47.5626  -56.7647 H         1 UNK         0.0798 
    117 H117       32.8286  -49.7039  -55.4919 H         1 UNK         0.3079 
    118 H118       31.8386  -51.1312  -52.5096 H         1 UNK         0.0794 
    119 H119       33.3629  -53.0478  -52.9107 H         1 UNK         0.0786 
    120 H120       33.2962  -52.7742  -54.6525 H         1 UNK         0.0786 
    121 H121       31.8586  -53.2883  -53.7810 H         1 UNK         0.0786 
    122 H122       34.4515  -50.8624  -53.4981 H         1 UNK         0.3032 
    123 H123       35.6505  -48.9220  -52.4214 H         1 UNK         0.1094 
    124 H124       34.9714  -47.9411  -55.2734 H         1 UNK         0.0794 
    125 H125       36.5878  -47.9730  -54.5778 H         1 UNK         0.0794 
    126 H126       35.7460  -49.4741  -54.8912 H         1 UNK         0.0794 
    127 H127       33.8648  -46.7358  -52.6504 H         1 UNK         0.3016 
@<TRIPOS>BOND
     1    1    2 1    
     2    1   67 1    
     3    1   68 1    
     4    1   69 1    
     5    2    3 2    
     6    2    4 am   BACKBONE|DICT|INTERRES
     7    4    5 1    
     8    4   70 1    
     9    5    6 1    
    10    5   65 1    
    11    5   71 1    
    12    6    7 1    
    13    6   72 1    
    14    6   73 1    
    15    7    8 1    
    16    8    9 1    
    17    8   74 1    
    18    8   75 1    
    19    9   10 ar   
    20    9   14 ar   
    21   10   11 ar   
    22   10   76 1    
    23   11   12 ar   
    24   11   48 1    
    25   12   13 ar   
    26   12   77 1    
    27   13   14 ar   
    28   13   15 1    
    29   14   78 1    
    30   15   16 1    
    31   15   79 1    
    32   15   80 1    
    33   16   17 1    
    34   17   18 1    
    35   17   81 1    
    36   17   82 1    
    37   18   19 1    
    38   18   22 1    
    39   18   83 1    
    40   19   20 am   BACKBONE|DICT|INTERRES
    41   19   21 2    
    42   20   84 1    
    43   20   85 1    
    44   22   23 am   BACKBONE|DICT|INTERRES
    45   22   86 1    
    46   23   24 2    
    47   23   25 1    
    48   25   26 1    
    49   25   27 1    
    50   25   87 1    
    51   26   88 1    
    52   26   89 1    
    53   26   90 1    
    54   27   28 am   BACKBONE|DICT|INTERRES
    55   27   91 1    
    56   28   29 2    
    57   28   30 1    
    58   30   31 1    
    59   30   32 1    
    60   30   92 1    
    61   31   93 1    
    62   31   94 1    
    63   31   95 1    
    64   32   33 am   BACKBONE|DICT|INTERRES
    65   32   96 1    
    66   33   34 2    
    67   33   35 1    
    68   35   36 1    
    69   35   37 1    
    70   35   97 1    
    71   36   98 1    
    72   36   99 1    
    73   36  100 1    
    74   37   38 am   BACKBONE|DICT|INTERRES
    75   37  101 1    
    76   38   39 2    
    77   38   40 1    
    78   40   41 1    
    79   40   42 1    
    80   40  102 1    
    81   41  103 1    
    82   41  104 1    
    83   41  105 1    
    84   42   43 am   BACKBONE|DICT|INTERRES
    85   42  106 1    
    86   43   44 2    
    87   43   45 1    
    88   45   46 1    
    89   45   49 1    
    90   45  107 1    
    91   46   47 1    
    92   46  108 1    
    93   46  109 1    
    94   47   48 1    
    95   48  110 1    
    96   48  111 1    
    97   49   50 am   BACKBONE|DICT|INTERRES
    98   49  112 1    
    99   50   51 2    
   100   50   52 1    
   101   52   53 1    
   102   52   54 1    
   103   52  113 1    
   104   53  114 1    
   105   53  115 1    
   106   53  116 1    
   107   54   55 am   BACKBONE|DICT|INTERRES
   108   54  117 1    
   109   55   56 2    
   110   55   57 1    
   111   57   58 1    
   112   57   59 1    
   113   57  118 1    
   114   58  119 1    
   115   58  120 1    
   116   58  121 1    
   117   59   60 am   BACKBONE|DICT|INTERRES
   118   59  122 1    
   119   60   61 2    
   120   60   62 1    
   121   62   63 1    
   122   62   64 1    
   123   62  123 1    
   124   63  124 1    
   125   63  125 1    
   126   63  126 1    
   127   64   65 am   BACKBONE|DICT|INTERRES
   128   64  127 1    
   129   65   66 2    
@<TRIPOS>SUBSTRUCTURE
     1 UNK         1 GROUP             0       ****    0 ROOT    
