@<TRIPOS>MOLECULE
3R134
127   129    1
SMALL
USER_CHARGES


@<TRIPOS>ATOM
      1 CA         28.5987  -44.6085  -51.1508 C.3       0 UNK        -0.1968 
      2 C          29.9645  -44.6392  -50.4795 C.2       0 UNK         0.4852 
      3 O          30.3179  -43.6987  -49.7669 O.2       0 UNK        -0.5359 
      4 N          30.7296  -45.7113  -50.7020 N.am      1 UNK        -0.4300 
      5 CA         32.0624  -45.9525  -50.1549 C.3       1 UNK         0.0863 
      6 C6         33.1599  -45.0419  -50.7796 C.3       11 UNK        -0.0953 
      7 S7         33.4449  -45.3175  -52.5621 S.3       11 UNK        -0.2369 
      8 C8         32.6071  -43.8750  -53.2991 C.3       11 UNK         0.0226 
      9 C9         32.3760  -44.0038  -54.8041 C.ar      11 UNK        -0.0699 
     10 C10        33.3352  -44.5809  -55.6452 C.ar      11 UNK        -0.0804 
     11 C11        33.1128  -44.6815  -57.0216 C.ar      11 UNK        -0.0871 
     12 C12        31.9285  -44.1787  -57.5659 C.ar      11 UNK        -0.1008 
     13 C13        30.9710  -43.5791  -56.7429 C.ar      11 UNK        -0.0735 
     14 C14        31.1950  -43.5048  -55.3643 C.ar      11 UNK        -0.0945 
     15 C15        29.7106  -42.9832  -57.3498 C.3       11 UNK         0.0169 
     16 S16        28.4800  -44.2674  -57.7104 S.3       11 UNK        -0.2669 
     17 C17        27.0932  -43.2551  -58.3350 C.3       11 UNK        -0.0850 
     18 CA         25.9775  -43.0432  -57.2781 C.3       10 UNK         0.0855 
     19 C          24.8189  -42.2027  -57.8817 C.2       10 UNK         0.5543 
     20 N          24.7942  -40.9025  -57.6225 N.am      10 UNK        -0.7343 
     21 O          23.9784  -42.7097  -58.6219 O.2       10 UNK        -0.5027 
     22 N          25.5465  -44.3323  -56.7237 N.am      10 UNK        -0.4495 
     23 C          24.5981  -44.5591  -55.8078 C.2       10 UNK         0.4903 
     24 O          23.9283  -43.6744  -55.2731 O.2       10 UNK        -0.4860 
     25 CA         24.4060  -46.0275  -55.3752 C.3       9 UNK         0.0227 
     26 CB         22.9335  -46.3729  -55.0666 C.3       9 UNK        -0.1964 
     27 N          25.0168  -46.9991  -56.2964 N.am      9 UNK        -0.4231 
     28 C          24.6271  -47.3105  -57.5457 C.2       9 UNK         0.5014 
     29 O          23.6301  -46.8356  -58.0897 O.2       9 UNK        -0.5270 
     30 CA         25.5069  -48.2891  -58.3539 C.3       8 UNK         0.0284 
     31 CB         26.2264  -47.5437  -59.4915 C.3       8 UNK        -0.1977 
     32 N          26.5111  -48.9885  -57.5506 N.am      8 UNK        -0.4342 
     33 C          26.2524  -49.9273  -56.6293 C.2       8 UNK         0.5039 
     34 O          25.1356  -50.4124  -56.4461 O.2       8 UNK        -0.5547 
     35 CA         27.4229  -50.3729  -55.7305 C.3       7 UNK         0.0281 
     36 CB         27.9045  -51.7756  -56.1324 C.3       7 UNK        -0.1963 
     37 N          28.5644  -49.4474  -55.7211 N.am      7 UNK        -0.4444 
     38 C          28.5288  -48.1730  -55.2981 C.2       7 UNK         0.5104 
     39 O          27.5098  -47.6327  -54.8661 O.2       7 UNK        -0.5100 
     40 CA         29.8226  -47.3467  -55.4014 C.3       6 UNK         0.0396 
     41 CB         30.4309  -47.1392  -54.0106 C.3       6 UNK        -0.1801 
     42 N          30.8303  -47.9335  -56.2878 N.am      6 UNK        -0.4747 
     43 C          30.7357  -47.9719  -57.6254 C.2       6 UNK         0.5012 
     44 O          29.7621  -47.5493  -58.2497 O.2       6 UNK        -0.5003 
     45 CA         31.8849  -48.6513  -58.3990 C.3       5 UNK         0.0782 
     46 C46        32.9039  -47.6256  -58.9636 C.3       11 UNK        -0.0868 
     47 S47        34.2015  -47.1149  -57.7792 S.3       11 UNK        -0.2515 
     48 C48        34.1750  -45.3012  -57.9156 C.3       11 UNK         0.0199 
     49 N          32.5384  -49.7194  -57.6347 N.am      5 UNK        -0.4607 
     50 C          31.9633  -50.8708  -57.2678 C.2       4 UNK         0.5031 
     51 O          30.8154  -51.1858  -57.5759 O.2       4 UNK        -0.5119 
     52 CA         32.7975  -51.8158  -56.3858 C.3       4 UNK         0.0263 
     53 CB         33.5813  -52.8103  -57.2569 C.3       4 UNK        -0.1967 
     54 N          33.7236  -51.1146  -55.4879 N.am      4 UNK        -0.4237 
     55 C          33.3419  -50.3282  -54.4727 C.2       3 UNK         0.4908 
     56 O          32.1651  -50.0864  -54.1965 O.2       3 UNK        -0.5102 
     57 CA         34.4590  -49.6758  -53.6537 C.3       3 UNK         0.0241 
     58 CB         34.8874  -48.3402  -54.2859 C.3       3 UNK        -0.1971 
     59 N          33.9745  -49.4466  -52.2949 N.am      3 UNK        -0.4139 
     60 C          34.7201  -49.4998  -51.1861 C.2       2 UNK         0.5016 
     61 O          35.9382  -49.6920  -51.1928 O.2       2 UNK        -0.5319 
     62 CA         33.9835  -49.2815  -49.8487 C.3       2 UNK         0.0286 
     63 CB         34.8692  -49.5899  -48.6263 C.3       2 UNK        -0.1963 
     64 N          33.4883  -47.9076  -49.7365 N.am      2 UNK        -0.4790 
     65 C          32.3630  -47.4568  -50.3033 C.2       1 UNK         0.5024 
     66 O          31.5893  -48.1809  -50.9384 O.2       1 UNK        -0.4888 
     67 H67        28.5870  -43.8591  -51.9418 H         1 UNK         0.0892 
     68 H68        28.3371  -45.5715  -51.5891 H         1 UNK         0.0892 
     69 H69        27.8282  -44.3506  -50.4247 H         1 UNK         0.0892 
     70 H70        30.3887  -46.4951  -51.2457 H         1 UNK         0.3107 
     71 H71        32.0167  -45.7502  -49.0828 H         1 UNK         0.0773 
     72 H72        34.1102  -45.1954  -50.2664 H         1 UNK         0.0680 
     73 H73        32.9162  -43.9920  -50.6122 H         1 UNK         0.0680 
     74 H74        33.2011  -42.9812  -53.1054 H         1 UNK         0.0650 
     75 H75        31.6524  -43.7338  -52.7914 H         1 UNK         0.0650 
     76 H76        34.2601  -44.9584  -55.2315 H         1 UNK         0.1397 
     77 H77        31.7527  -44.2419  -58.6311 H         1 UNK         0.1363 
     78 H78        30.4525  -43.0428  -54.7281 H         1 UNK         0.1355 
     79 H79        29.2741  -42.2453  -56.6747 H         1 UNK         0.0707 
     80 H80        29.9621  -42.4526  -58.2694 H         1 UNK         0.0707 
     81 H81        27.4733  -42.2946  -58.6887 H         1 UNK         0.1034 
     82 H82        26.6887  -43.7571  -59.2165 H         1 UNK         0.1034 
     83 H83        26.4049  -42.4820  -56.4448 H         1 UNK         0.0482 
     84 H84        25.4853  -40.4754  -57.0253 H         1 UNK         0.3460 
     85 H85        24.0601  -40.3376  -58.0205 H         1 UNK         0.3460 
     86 H86        26.0483  -45.1319  -57.0780 H         1 UNK         0.2989 
     87 H87        24.9619  -46.1311  -54.4422 H         1 UNK         0.0559 
     88 H88        22.2848  -46.1965  -55.9248 H         1 UNK         0.0848 
     89 H89        22.5536  -45.7620  -54.2468 H         1 UNK         0.0848 
     90 H90        22.8235  -47.4157  -54.7694 H         1 UNK         0.0848 
     91 H91        25.8695  -47.4252  -55.9422 H         1 UNK         0.3144 
     92 H92        24.8427  -49.0353  -58.7948 H         1 UNK         0.0727 
     93 H93        26.7881  -48.2315  -60.1238 H         1 UNK         0.0790 
     94 H94        26.9242  -46.7972  -59.1085 H         1 UNK         0.0790 
     95 H95        25.5140  -47.0247  -60.1344 H         1 UNK         0.0790 
     96 H96        27.4654  -48.6645  -57.6402 H         1 UNK         0.3215 
     97 H97        27.0401  -50.4235  -54.7090 H         1 UNK         0.0863 
     98 H98        28.7188  -52.1183  -55.4935 H         1 UNK         0.0808 
     99 H99        28.2533  -51.8001  -57.1653 H         1 UNK         0.0808 
    100 H100       27.0969  -52.5039  -56.0466 H         1 UNK         0.0808 
    101 H101       29.4417  -49.8053  -56.0759 H         1 UNK         0.3118 
    102 H102       29.5586  -46.3658  -55.8009 H         1 UNK         0.0546 
    103 H103       29.7633  -46.5470  -53.3860 H         1 UNK         0.0828 
    104 H104       31.3778  -46.6077  -54.0726 H         1 UNK         0.0828 
    105 H105       30.6088  -48.0851  -53.4990 H         1 UNK         0.0828 
    106 H106       31.6373  -48.3510  -55.8446 H         1 UNK         0.3005 
    107 H107       31.4066  -49.1298  -59.2573 H         1 UNK         0.1257 
    108 H108       32.3920  -46.7489  -59.3654 H         1 UNK         0.0775 
    109 H109       33.4170  -48.0722  -59.8164 H         1 UNK         0.0775 
    110 H110       35.1536  -44.9173  -57.6233 H         1 UNK         0.0840 
    111 H111       34.0372  -45.0061  -58.9570 H         1 UNK         0.0840 
    112 H112       33.4851  -49.5280  -57.3400 H         1 UNK         0.2987 
    113 H113       32.0981  -52.3823  -55.7668 H         1 UNK         0.0785 
    114 H114       32.9108  -53.3616  -57.9180 H         1 UNK         0.0798 
    115 H115       34.1064  -53.5453  -56.6465 H         1 UNK         0.0798 
    116 H116       34.3168  -52.3067  -57.8856 H         1 UNK         0.0798 
    117 H117       34.7103  -51.2551  -55.6543 H         1 UNK         0.3079 
    118 H118       35.3121  -50.3573  -53.6258 H         1 UNK         0.0794 
    119 H119       34.0399  -47.6656  -54.4158 H         1 UNK         0.0786 
    120 H120       35.3337  -48.4974  -55.2681 H         1 UNK         0.0786 
    121 H121       35.6292  -47.8281  -53.6728 H         1 UNK         0.0786 
    122 H122       32.9744  -49.2872  -52.2145 H         1 UNK         0.3032 
    123 H123       33.1387  -49.9745  -49.8265 H         1 UNK         0.1094 
    124 H124       35.7323  -48.9252  -48.5715 H         1 UNK         0.0794 
    125 H125       34.3095  -49.4903  -47.6961 H         1 UNK         0.0794 
    126 H126       35.2471  -50.6126  -48.6666 H         1 UNK         0.0794 
    127 H127       34.0920  -47.2516  -49.2612 H         1 UNK         0.3016 
@<TRIPOS>BOND
     1    1    2 1    
     2    1   67 1    
     3    1   68 1    
     4    1   69 1    
     5    2    3 2    
     6    2    4 am   BACKBONE|DICT|INTERRES
     7    4    5 1    
     8    4   70 1    
     9    5    6 1    
    10    5   65 1    
    11    5   71 1    
    12    6    7 1    
    13    6   72 1    
    14    6   73 1    
    15    7    8 1    
    16    8    9 1    
    17    8   74 1    
    18    8   75 1    
    19    9   10 ar   
    20    9   14 ar   
    21   10   11 ar   
    22   10   76 1    
    23   11   12 ar   
    24   11   48 1    
    25   12   13 ar   
    26   12   77 1    
    27   13   14 ar   
    28   13   15 1    
    29   14   78 1    
    30   15   16 1    
    31   15   79 1    
    32   15   80 1    
    33   16   17 1    
    34   17   18 1    
    35   17   81 1    
    36   17   82 1    
    37   18   19 1    
    38   18   22 1    
    39   18   83 1    
    40   19   20 am   BACKBONE|DICT|INTERRES
    41   19   21 2    
    42   20   84 1    
    43   20   85 1    
    44   22   23 am   BACKBONE|DICT|INTERRES
    45   22   86 1    
    46   23   24 2    
    47   23   25 1    
    48   25   26 1    
    49   25   27 1    
    50   25   87 1    
    51   26   88 1    
    52   26   89 1    
    53   26   90 1    
    54   27   28 am   BACKBONE|DICT|INTERRES
    55   27   91 1    
    56   28   29 2    
    57   28   30 1    
    58   30   31 1    
    59   30   32 1    
    60   30   92 1    
    61   31   93 1    
    62   31   94 1    
    63   31   95 1    
    64   32   33 am   BACKBONE|DICT|INTERRES
    65   32   96 1    
    66   33   34 2    
    67   33   35 1    
    68   35   36 1    
    69   35   37 1    
    70   35   97 1    
    71   36   98 1    
    72   36   99 1    
    73   36  100 1    
    74   37   38 am   BACKBONE|DICT|INTERRES
    75   37  101 1    
    76   38   39 2    
    77   38   40 1    
    78   40   41 1    
    79   40   42 1    
    80   40  102 1    
    81   41  103 1    
    82   41  104 1    
    83   41  105 1    
    84   42   43 am   BACKBONE|DICT|INTERRES
    85   42  106 1    
    86   43   44 2    
    87   43   45 1    
    88   45   46 1    
    89   45   49 1    
    90   45  107 1    
    91   46   47 1    
    92   46  108 1    
    93   46  109 1    
    94   47   48 1    
    95   48  110 1    
    96   48  111 1    
    97   49   50 am   BACKBONE|DICT|INTERRES
    98   49  112 1    
    99   50   51 2    
   100   50   52 1    
   101   52   53 1    
   102   52   54 1    
   103   52  113 1    
   104   53  114 1    
   105   53  115 1    
   106   53  116 1    
   107   54   55 am   BACKBONE|DICT|INTERRES
   108   54  117 1    
   109   55   56 2    
   110   55   57 1    
   111   57   58 1    
   112   57   59 1    
   113   57  118 1    
   114   58  119 1    
   115   58  120 1    
   116   58  121 1    
   117   59   60 am   BACKBONE|DICT|INTERRES
   118   59  122 1    
   119   60   61 2    
   120   60   62 1    
   121   62   63 1    
   122   62   64 1    
   123   62  123 1    
   124   63  124 1    
   125   63  125 1    
   126   63  126 1    
   127   64   65 am   BACKBONE|DICT|INTERRES
   128   64  127 1    
   129   65   66 2    
@<TRIPOS>SUBSTRUCTURE
     1 UNK         1 GROUP             0       ****    0 ROOT    
