@<TRIPOS>MOLECULE
3R134
127   129    1
SMALL
USER_CHARGES


@<TRIPOS>ATOM
      1 CA         36.7552  -48.3165  -56.3104 C.3       0 UNK        -0.1968 
      2 C          35.5273  -47.8896  -55.5220 C.2       0 UNK         0.4852 
      3 O          34.6053  -48.6898  -55.3567 O.2       0 UNK        -0.5359 
      4 N          35.5174  -46.6434  -55.0247 N.am      1 UNK        -0.4300 
      5 CA         34.4273  -45.9902  -54.2808 C.3       1 UNK         0.0863 
      6 C6         34.8465  -44.5858  -53.7881 C.3       11 UNK        -0.0953 
      7 S7         35.0447  -43.4138  -55.1696 S.3       11 UNK        -0.2369 
      8 C8         34.1790  -41.9428  -54.5334 C.3       11 UNK         0.0226 
      9 C9         32.6649  -42.1117  -54.5204 C.ar      11 UNK        -0.0699 
     10 C10        31.9959  -42.4404  -53.3365 C.ar      11 UNK        -0.0804 
     11 C11        30.6020  -42.5524  -53.3100 C.ar      11 UNK        -0.0871 
     12 C12        29.8765  -42.3178  -54.4826 C.ar      11 UNK        -0.1008 
     13 C13        30.5326  -41.9903  -55.6733 C.ar      11 UNK        -0.0735 
     14 C14        31.9268  -41.8917  -55.6866 C.ar      11 UNK        -0.0945 
     15 C15        29.7338  -41.6988  -56.9352 C.3       11 UNK         0.0169 
     16 S16        29.8928  -43.0087  -58.1914 S.3       11 UNK        -0.2669 
     17 C17        29.1150  -44.4518  -57.3798 C.3       11 UNK        -0.0850 
     18 CA         27.5889  -44.5998  -57.6321 C.3       10 UNK         0.0855 
     19 C          26.7498  -43.6894  -56.6891 C.2       10 UNK         0.5543 
     20 N          25.9503  -42.7615  -57.2015 N.am      10 UNK        -0.7343 
     21 O          26.8131  -43.8406  -55.4739 O.2       10 UNK        -0.5027 
     22 N          27.2616  -44.4790  -59.0648 N.am      10 UNK        -0.4495 
     23 C          26.1872  -44.9469  -59.7158 C.2       10 UNK         0.4903 
     24 O          26.0118  -44.7051  -60.9090 O.2       10 UNK        -0.4860 
     25 CA         25.1920  -45.8744  -58.9943 C.3       9 UNK         0.0227 
     26 CB         23.7844  -45.8243  -59.6187 C.3       9 UNK        -0.1964 
     27 N          25.7186  -47.2299  -59.1094 N.am      9 UNK        -0.4231 
     28 C          25.9764  -48.0552  -58.0903 C.2       9 UNK         0.5014 
     29 O          25.6798  -47.8161  -56.9171 O.2       9 UNK        -0.5270 
     30 CA         26.6822  -49.3684  -58.4589 C.3       8 UNK         0.0284 
     31 CB         27.9317  -49.1413  -59.3364 C.3       8 UNK        -0.1977 
     32 N          27.0800  -50.0745  -57.2439 N.am      8 UNK        -0.4342 
     33 C          27.0181  -51.3984  -57.0700 C.2       8 UNK         0.5039 
     34 O          26.5896  -52.1774  -57.9236 O.2       8 UNK        -0.5547 
     35 CA         27.5434  -51.9766  -55.7456 C.3       7 UNK         0.0281 
     36 CB         28.9037  -52.6593  -55.9708 C.3       7 UNK        -0.1963 
     37 N          27.6844  -50.9925  -54.6702 N.am      7 UNK        -0.4444 
     38 C          26.6801  -50.5417  -53.9075 C.2       7 UNK         0.5104 
     39 O          25.4981  -50.8334  -54.0912 O.2       7 UNK        -0.5100 
     40 CA         27.0589  -49.6404  -52.7217 C.3       6 UNK         0.0396 
     41 CB         27.5883  -50.4902  -51.5548 C.3       6 UNK        -0.1801 
     42 N          28.0736  -48.6519  -53.0923 N.am      6 UNK        -0.4747 
     43 C          27.8344  -47.3453  -53.2838 C.2       6 UNK         0.5012 
     44 O          26.7242  -46.8340  -53.1340 O.2       6 UNK        -0.5003 
     45 CA         29.0259  -46.4574  -53.7233 C.3       5 UNK         0.0782 
     46 C46        29.6180  -45.6493  -52.5397 C.3       11 UNK        -0.0868 
     47 S47        28.6246  -44.1752  -52.1288 S.3       11 UNK        -0.2515 
     48 C48        29.8916  -42.8680  -51.9959 C.3       11 UNK         0.0199 
     49 N          30.0704  -47.2162  -54.4239 N.am      5 UNK        -0.4607 
     50 C          29.8964  -47.7863  -55.6237 C.2       4 UNK         0.5031 
     51 O          28.8615  -47.6825  -56.2774 O.2       4 UNK        -0.5119 
     52 CA         31.0371  -48.6418  -56.1944 C.3       4 UNK         0.0263 
     53 CB         31.9018  -47.8071  -57.1517 C.3       4 UNK        -0.1967 
     54 N          31.8937  -49.2994  -55.2016 N.am      4 UNK        -0.4237 
     55 C          31.4820  -50.1764  -54.2735 C.2       3 UNK         0.4908 
     56 O          30.2990  -50.4023  -54.0232 O.2       3 UNK        -0.5102 
     57 CA         32.5669  -50.9285  -53.4938 C.3       3 UNK         0.0241 
     58 CB         33.3063  -51.9225  -54.4054 C.3       3 UNK        -0.1971 
     59 N          33.5188  -49.9843  -52.9180 N.am      3 UNK        -0.4139 
     60 C          33.5036  -49.5734  -51.6430 C.2       2 UNK         0.5016 
     61 O          32.7745  -50.0510  -50.7727 O.2       2 UNK        -0.5319 
     62 CA         34.4480  -48.4143  -51.2701 C.3       2 UNK         0.0286 
     63 CB         35.7501  -48.9568  -50.6590 C.3       2 UNK        -0.1963 
     64 N          34.7765  -47.5238  -52.3890 N.am      2 UNK        -0.4790 
     65 C          33.8841  -46.8171  -53.0994 C.2       1 UNK         0.5024 
     66 O          32.6723  -46.8306  -52.8837 O.2       1 UNK        -0.4888 
     67 H67        36.4682  -48.5987  -57.3230 H         1 UNK         0.0892 
     68 H68        37.4965  -47.5204  -56.3765 H         1 UNK         0.0892 
     69 H69        37.2229  -49.1788  -55.8360 H         1 UNK         0.0892 
     70 H70        36.3110  -46.0464  -55.2098 H         1 UNK         0.3107 
     71 H71        33.5948  -45.8712  -54.9760 H         1 UNK         0.0773 
     72 H72        35.7852  -44.6331  -53.2330 H         1 UNK         0.0680 
     73 H73        34.1107  -44.1878  -53.0898 H         1 UNK         0.0680 
     74 H74        34.4408  -41.0888  -55.1598 H         1 UNK         0.0650 
     75 H75        34.5499  -41.7075  -53.5345 H         1 UNK         0.0650 
     76 H76        32.5611  -42.5903  -52.4271 H         1 UNK         0.1397 
     77 H77        28.7971  -42.3818  -54.4633 H         1 UNK         0.1363 
     78 H78        32.4364  -41.6300  -56.6040 H         1 UNK         0.1355 
     79 H79        28.6809  -41.5395  -56.7013 H         1 UNK         0.0707 
     80 H80        30.0867  -40.7614  -57.3676 H         1 UNK         0.0707 
     81 H81        29.3472  -44.4536  -56.3142 H         1 UNK         0.1034 
     82 H82        29.6152  -45.3382  -57.7721 H         1 UNK         0.1034 
     83 H83        27.3430  -45.6159  -57.3264 H         1 UNK         0.0482 
     84 H84        25.9070  -42.6118  -58.1967 H         1 UNK         0.3460 
     85 H85        25.4054  -42.1845  -56.5804 H         1 UNK         0.3460 
     86 H86        27.9098  -43.9014  -59.5804 H         1 UNK         0.2989 
     87 H87        25.0920  -45.5728  -57.9519 H         1 UNK         0.0559 
     88 H88        23.7842  -46.1482  -60.6603 H         1 UNK         0.0848 
     89 H89        23.3825  -44.8108  -59.5905 H         1 UNK         0.0848 
     90 H90        23.0899  -46.4632  -59.0730 H         1 UNK         0.0848 
     91 H91        26.0178  -47.5005  -60.0364 H         1 UNK         0.3144 
     92 H92        25.9590  -49.9675  -59.0164 H         1 UNK         0.0727 
     93 H93        28.4598  -50.0771  -59.5206 H         1 UNK         0.0790 
     94 H94        28.6341  -48.4524  -58.8656 H         1 UNK         0.0790 
     95 H95        27.6716  -48.7301  -60.3119 H         1 UNK         0.0790 
     96 H96        27.3847  -49.4761  -56.4841 H         1 UNK         0.3215 
     97 H97        26.8319  -52.7394  -55.4214 H         1 UNK         0.0863 
     98 H98        29.6562  -51.9516  -56.3209 H         1 UNK         0.0808 
     99 H99        28.8263  -53.4489  -56.7195 H         1 UNK         0.0808 
    100 H100       29.2758  -53.1179  -55.0545 H         1 UNK         0.0808 
    101 H101       28.6392  -50.7265  -54.4294 H         1 UNK         0.3118 
    102 H102       26.1478  -49.1441  -52.3812 H         1 UNK         0.0546 
    103 H103       27.7928  -49.8741  -50.6792 H         1 UNK         0.0828 
    104 H104       28.5090  -51.0136  -51.8168 H         1 UNK         0.0828 
    105 H105       26.8576  -51.2434  -51.2569 H         1 UNK         0.0828 
    106 H106       29.0045  -49.0086  -53.2808 H         1 UNK         0.3005 
    107 H107       28.6201  -45.7467  -54.4467 H         1 UNK         0.1257 
    108 H108       30.6178  -45.3016  -52.7993 H         1 UNK         0.0775 
    109 H109       29.7417  -46.2698  -51.6501 H         1 UNK         0.0775 
    110 H110       29.4124  -41.9566  -51.6362 H         1 UNK         0.0840 
    111 H111       30.6085  -43.1597  -51.2266 H         1 UNK         0.0840 
    112 H112       30.9573  -47.3220  -53.9424 H         1 UNK         0.2987 
    113 H113       30.5685  -49.4374  -56.7776 H         1 UNK         0.0785 
    114 H114       32.6664  -48.4180  -57.6320 H         1 UNK         0.0798 
    115 H115       31.2946  -47.3676  -57.9443 H         1 UNK         0.0798 
    116 H116       32.4027  -46.9898  -56.6341 H         1 UNK         0.0798 
    117 H117       32.8961  -49.1427  -55.3078 H         1 UNK         0.3079 
    118 H118       32.0736  -51.5019  -52.7058 H         1 UNK         0.0794 
    119 H119       34.0299  -52.5098  -53.8400 H         1 UNK         0.0786 
    120 H120       33.8434  -51.4198  -55.2108 H         1 UNK         0.0786 
    121 H121       32.6081  -52.6237  -54.8648 H         1 UNK         0.0786 
    122 H122       34.1262  -49.5024  -53.5733 H         1 UNK         0.3032 
    123 H123       33.9345  -47.8160  -50.5140 H         1 UNK         0.1094 
    124 H124       35.5407  -49.6044  -49.8062 H         1 UNK         0.0794 
    125 H125       36.3212  -49.5427  -51.3804 H         1 UNK         0.0794 
    126 H126       36.3879  -48.1489  -50.2998 H         1 UNK         0.0794 
    127 H127       35.7499  -47.4616  -52.6512 H         1 UNK         0.3016 
@<TRIPOS>BOND
     1    1    2 1    
     2    1   67 1    
     3    1   68 1    
     4    1   69 1    
     5    2    3 2    
     6    2    4 am   BACKBONE|DICT|INTERRES
     7    4    5 1    
     8    4   70 1    
     9    5    6 1    
    10    5   65 1    
    11    5   71 1    
    12    6    7 1    
    13    6   72 1    
    14    6   73 1    
    15    7    8 1    
    16    8    9 1    
    17    8   74 1    
    18    8   75 1    
    19    9   10 ar   
    20    9   14 ar   
    21   10   11 ar   
    22   10   76 1    
    23   11   12 ar   
    24   11   48 1    
    25   12   13 ar   
    26   12   77 1    
    27   13   14 ar   
    28   13   15 1    
    29   14   78 1    
    30   15   16 1    
    31   15   79 1    
    32   15   80 1    
    33   16   17 1    
    34   17   18 1    
    35   17   81 1    
    36   17   82 1    
    37   18   19 1    
    38   18   22 1    
    39   18   83 1    
    40   19   20 am   BACKBONE|DICT|INTERRES
    41   19   21 2    
    42   20   84 1    
    43   20   85 1    
    44   22   23 am   BACKBONE|DICT|INTERRES
    45   22   86 1    
    46   23   24 2    
    47   23   25 1    
    48   25   26 1    
    49   25   27 1    
    50   25   87 1    
    51   26   88 1    
    52   26   89 1    
    53   26   90 1    
    54   27   28 am   BACKBONE|DICT|INTERRES
    55   27   91 1    
    56   28   29 2    
    57   28   30 1    
    58   30   31 1    
    59   30   32 1    
    60   30   92 1    
    61   31   93 1    
    62   31   94 1    
    63   31   95 1    
    64   32   33 am   BACKBONE|DICT|INTERRES
    65   32   96 1    
    66   33   34 2    
    67   33   35 1    
    68   35   36 1    
    69   35   37 1    
    70   35   97 1    
    71   36   98 1    
    72   36   99 1    
    73   36  100 1    
    74   37   38 am   BACKBONE|DICT|INTERRES
    75   37  101 1    
    76   38   39 2    
    77   38   40 1    
    78   40   41 1    
    79   40   42 1    
    80   40  102 1    
    81   41  103 1    
    82   41  104 1    
    83   41  105 1    
    84   42   43 am   BACKBONE|DICT|INTERRES
    85   42  106 1    
    86   43   44 2    
    87   43   45 1    
    88   45   46 1    
    89   45   49 1    
    90   45  107 1    
    91   46   47 1    
    92   46  108 1    
    93   46  109 1    
    94   47   48 1    
    95   48  110 1    
    96   48  111 1    
    97   49   50 am   BACKBONE|DICT|INTERRES
    98   49  112 1    
    99   50   51 2    
   100   50   52 1    
   101   52   53 1    
   102   52   54 1    
   103   52  113 1    
   104   53  114 1    
   105   53  115 1    
   106   53  116 1    
   107   54   55 am   BACKBONE|DICT|INTERRES
   108   54  117 1    
   109   55   56 2    
   110   55   57 1    
   111   57   58 1    
   112   57   59 1    
   113   57  118 1    
   114   58  119 1    
   115   58  120 1    
   116   58  121 1    
   117   59   60 am   BACKBONE|DICT|INTERRES
   118   59  122 1    
   119   60   61 2    
   120   60   62 1    
   121   62   63 1    
   122   62   64 1    
   123   62  123 1    
   124   63  124 1    
   125   63  125 1    
   126   63  126 1    
   127   64   65 am   BACKBONE|DICT|INTERRES
   128   64  127 1    
   129   65   66 2    
@<TRIPOS>SUBSTRUCTURE
     1 UNK         1 GROUP             0       ****    0 ROOT    
