@<TRIPOS>MOLECULE
3R134
127   129    1
SMALL
USER_CHARGES


@<TRIPOS>ATOM
      1 CA         29.4635  -46.8765  -49.9197 C.3       0 UNK        -0.1968 
      2 C          30.9420  -46.8591  -49.5606 C.2       0 UNK         0.4852 
      3 O          31.3642  -47.6029  -48.6742 O.2       0 UNK        -0.5359 
      4 N          31.7293  -46.0113  -50.2389 N.am      1 UNK        -0.4300 
      5 CA         33.1781  -45.8687  -50.0427 C.3       1 UNK         0.0863 
      6 C6         33.7343  -44.5868  -50.7197 C.3       11 UNK        -0.0953 
      7 S7         33.5454  -44.5683  -52.5378 S.3       11 UNK        -0.2369 
      8 C8         32.6504  -43.0040  -52.8324 C.3       11 UNK         0.0226 
      9 C9         32.1253  -42.8626  -54.2626 C.ar      11 UNK        -0.0699 
     10 C10        32.8513  -43.3418  -55.3603 C.ar      11 UNK        -0.0804 
     11 C11        32.3493  -43.2229  -56.6590 C.ar      11 UNK        -0.0871 
     12 C12        31.1271  -42.5818  -56.8681 C.ar      11 UNK        -0.1008 
     13 C13        30.3943  -42.0856  -55.7865 C.ar      11 UNK        -0.0735 
     14 C14        30.8949  -42.2347  -54.4883 C.ar      11 UNK        -0.0945 
     15 C15        29.0721  -41.3694  -56.0225 C.3       11 UNK         0.0169 
     16 S16        27.6799  -42.5344  -56.1451 S.3       11 UNK        -0.2669 
     17 C17        27.9214  -43.2168  -57.8235 C.3       11 UNK        -0.0850 
     18 CA         26.6367  -43.8675  -58.4019 C.3       10 UNK         0.0855 
     19 C          26.8399  -44.3528  -59.8675 C.2       10 UNK         0.5543 
     20 N          26.4396  -45.5652  -60.2360 N.am      10 UNK        -0.7343 
     21 O          27.3590  -43.6077  -60.6949 O.2       10 UNK        -0.5027 
     22 N          26.1257  -44.9212  -57.5150 N.am      10 UNK        -0.4495 
     23 C          24.8379  -45.1223  -57.2193 C.2       10 UNK         0.4903 
     24 O          23.9183  -44.4173  -57.6396 O.2       10 UNK        -0.4860 
     25 CA         24.5322  -46.3131  -56.2922 C.3       9 UNK         0.0227 
     26 CB         23.0402  -46.7096  -56.2907 C.3       9 UNK        -0.1964 
     27 N          25.3805  -47.4833  -56.5474 N.am      9 UNK        -0.4231 
     28 C          25.4641  -48.2051  -57.6770 C.2       9 UNK         0.5014 
     29 O          24.8562  -47.9155  -58.7091 O.2       9 UNK        -0.5270 
     30 CA         26.3799  -49.4505  -57.6814 C.3       8 UNK         0.0284 
     31 CB         27.2739  -49.4796  -58.9339 C.3       8 UNK        -0.1977 
     32 N          27.2285  -49.5689  -56.4930 N.am      8 UNK        -0.4342 
     33 C          26.8312  -49.9707  -55.2787 C.2       8 UNK         0.5039 
     34 O          25.7031  -50.3976  -55.0335 O.2       8 UNK        -0.5547 
     35 CA         27.8408  -49.7946  -54.1306 C.3       7 UNK         0.0281 
     36 CB         28.6905  -51.0587  -53.9415 C.3       7 UNK        -0.1963 
     37 N          28.7166  -48.6322  -54.3191 N.am      7 UNK        -0.4444 
     38 C          28.3001  -47.3579  -54.2945 C.2       7 UNK         0.5104 
     39 O          27.1380  -47.0235  -54.0653 O.2       7 UNK        -0.5100 
     40 CA         29.3471  -46.2812  -54.6225 C.3       6 UNK         0.0396 
     41 CB         30.2311  -46.0051  -53.4045 C.3       6 UNK        -0.1801 
     42 N          30.1858  -46.6311  -55.7719 N.am      6 UNK        -0.4747 
     43 C          29.7242  -46.7107  -57.0270 C.2       6 UNK         0.5012 
     44 O          28.5496  -46.5017  -57.3313 O.2       6 UNK        -0.5003 
     45 CA         30.7148  -47.1477  -58.1252 C.3       5 UNK         0.0782 
     46 C46        31.5120  -45.9501  -58.7164 C.3       11 UNK        -0.0868 
     47 S47        33.0956  -45.5974  -57.8662 S.3       11 UNK        -0.2515 
     48 C48        33.1419  -43.7783  -57.8309 C.3       11 UNK         0.0199 
     49 N          31.5896  -48.2632  -57.7411 N.am      5 UNK        -0.4607 
     50 C          31.2200  -49.4430  -57.2294 C.2       4 UNK         0.5031 
     51 O          30.0543  -49.7373  -56.9665 O.2       4 UNK        -0.5119 
     52 CA         32.3284  -50.4669  -56.9472 C.3       4 UNK         0.0263 
     53 CB         33.7596  -49.9753  -57.2601 C.3       4 UNK        -0.1967 
     54 N          32.2410  -50.8628  -55.5469 N.am      4 UNK        -0.4237 
     55 C          32.5386  -52.0651  -55.0476 C.2       3 UNK         0.4908 
     56 O          32.9209  -53.0157  -55.7327 O.2       3 UNK        -0.5102 
     57 CA         32.4168  -52.2081  -53.5159 C.3       3 UNK         0.0241 
     58 CB         32.7678  -53.6241  -53.0210 C.3       3 UNK        -0.1971 
     59 N          33.2556  -51.2353  -52.8080 N.am      3 UNK        -0.4139 
     60 C          32.9884  -49.9311  -52.6618 C.2       2 UNK         0.5016 
     61 O          31.9688  -49.3814  -53.0954 O.2       2 UNK        -0.5319 
     62 CA         34.0737  -49.0950  -51.9774 C.3       2 UNK         0.0286 
     63 CB         35.1745  -48.7132  -52.9858 C.3       2 UNK        -0.1963 
     64 N          33.4660  -47.8885  -51.4288 N.am      2 UNK        -0.4790 
     65 C          33.9812  -47.1245  -50.4568 C.2       1 UNK         0.5024 
     66 O          35.0480  -47.3712  -49.8914 O.2       1 UNK        -0.4888 
     67 H67        29.1199  -45.8945  -50.2433 H         1 UNK         0.0892 
     68 H68        29.2767  -47.5941  -50.7185 H         1 UNK         0.0892 
     69 H69        28.8662  -47.1671  -49.0556 H         1 UNK         0.0892 
     70 H70        31.3314  -45.4143  -50.9482 H         1 UNK         0.3107 
     71 H71        33.3362  -45.7532  -48.9680 H         1 UNK         0.0773 
     72 H72        34.7944  -44.4673  -50.4886 H         1 UNK         0.0680 
     73 H73        33.2450  -43.7091  -50.2948 H         1 UNK         0.0680 
     74 H74        33.3138  -42.1668  -52.6128 H         1 UNK         0.0650 
     75 H75        31.8201  -42.9434  -52.1272 H         1 UNK         0.0650 
     76 H76        33.8062  -43.8258  -55.2093 H         1 UNK         0.1397 
     77 H77        30.7461  -42.4673  -57.8732 H         1 UNK         0.1363 
     78 H78        30.3254  -41.8538  -53.6515 H         1 UNK         0.1355 
     79 H79        28.8737  -40.6778  -55.2023 H         1 UNK         0.0707 
     80 H80        29.1271  -40.7573  -56.9239 H         1 UNK         0.0707 
     81 H81        28.2560  -42.4097  -58.4777 H         1 UNK         0.1034 
     82 H82        28.7355  -43.9402  -57.7906 H         1 UNK         0.1034 
     83 H83        25.8900  -43.0744  -58.4685 H         1 UNK         0.0482 
     84 H84        25.9804  -46.1806  -59.5778 H         1 UNK         0.3460 
     85 H85        26.5720  -45.8583  -61.1906 H         1 UNK         0.3460 
     86 H86        26.8268  -45.5771  -57.1830 H         1 UNK         0.2989 
     87 H87        24.7817  -45.9778  -55.2846 H         1 UNK         0.0559 
     88 H88        22.6991  -47.0062  -57.2831 H         1 UNK         0.0848 
     89 H89        22.4139  -45.8771  -55.9678 H         1 UNK         0.0848 
     90 H90        22.8505  -47.5386  -55.6089 H         1 UNK         0.0848 
     91 H91        25.9669  -47.7574  -55.7681 H         1 UNK         0.3144 
     92 H92        25.7247  -50.3231  -57.7172 H         1 UNK         0.0727 
     93 H93        27.9016  -48.5914  -58.9981 H         1 UNK         0.0790 
     94 H94        26.6747  -49.5200  -59.8443 H         1 UNK         0.0790 
     95 H95        27.9262  -50.3532  -58.9384 H         1 UNK         0.0790 
     96 H96        28.2073  -49.3174  -56.6108 H         1 UNK         0.3215 
     97 H97        27.2669  -49.6337  -53.2152 H         1 UNK         0.0863 
     98 H98        29.3308  -50.9655  -53.0648 H         1 UNK         0.0808 
     99 H99        29.3211  -51.2583  -54.8083 H         1 UNK         0.0808 
    100 H100       28.0585  -51.9346  -53.7889 H         1 UNK         0.0808 
    101 H101       29.6855  -48.8174  -54.5353 H         1 UNK         0.3118 
    102 H102       28.8163  -45.3581  -54.8678 H         1 UNK         0.0546 
    103 H103       29.6313  -45.6275  -52.5773 H         1 UNK         0.0828 
    104 H104       30.9733  -45.2474  -53.6378 H         1 UNK         0.0828 
    105 H105       30.7548  -46.8992  -53.0658 H         1 UNK         0.0828 
    106 H106       31.1658  -46.8070  -55.6031 H         1 UNK         0.3005 
    107 H107       30.0866  -47.5341  -58.9304 H         1 UNK         0.1257 
    108 H108       30.8986  -45.0478  -58.7570 H         1 UNK         0.0775 
    109 H109       31.7604  -46.1713  -59.7556 H         1 UNK         0.0775 
    110 H110       34.1805  -43.4566  -57.7418 H         1 UNK         0.0840 
    111 H111       32.7821  -43.3789  -58.7805 H         1 UNK         0.0840 
    112 H112       32.5745  -48.0967  -57.8908 H         1 UNK         0.2987 
    113 H113       32.1121  -51.3304  -57.5796 H         1 UNK         0.0785 
    114 H114       33.8663  -49.6974  -58.3095 H         1 UNK         0.0798 
    115 H115       34.4912  -50.7607  -57.0687 H         1 UNK         0.0798 
    116 H116       34.0387  -49.1147  -56.6503 H         1 UNK         0.0798 
    117 H117       31.9381  -50.1477  -54.8912 H         1 UNK         0.3079 
    118 H118       31.3748  -52.0214  -53.2556 H         1 UNK         0.0794 
    119 H119       33.8032  -53.8858  -53.2428 H         1 UNK         0.0786 
    120 H120       32.1326  -54.3729  -53.4964 H         1 UNK         0.0786 
    121 H121       32.6211  -53.7159  -51.9446 H         1 UNK         0.0786 
    122 H122       34.1368  -51.5861  -52.4607 H         1 UNK         0.3032 
    123 H123       34.5030  -49.6814  -51.1616 H         1 UNK         0.1094 
    124 H124       34.7770  -48.1086  -53.8024 H         1 UNK         0.0794 
    125 H125       35.9727  -48.1440  -52.5090 H         1 UNK         0.0794 
    126 H126       35.6321  -49.5992  -53.4277 H         1 UNK         0.0794 
    127 H127       32.5660  -47.6553  -51.8276 H         1 UNK         0.3016 
@<TRIPOS>BOND
     1    1    2 1    
     2    1   67 1    
     3    1   68 1    
     4    1   69 1    
     5    2    3 2    
     6    2    4 am   BACKBONE|DICT|INTERRES
     7    4    5 1    
     8    4   70 1    
     9    5    6 1    
    10    5   65 1    
    11    5   71 1    
    12    6    7 1    
    13    6   72 1    
    14    6   73 1    
    15    7    8 1    
    16    8    9 1    
    17    8   74 1    
    18    8   75 1    
    19    9   10 ar   
    20    9   14 ar   
    21   10   11 ar   
    22   10   76 1    
    23   11   12 ar   
    24   11   48 1    
    25   12   13 ar   
    26   12   77 1    
    27   13   14 ar   
    28   13   15 1    
    29   14   78 1    
    30   15   16 1    
    31   15   79 1    
    32   15   80 1    
    33   16   17 1    
    34   17   18 1    
    35   17   81 1    
    36   17   82 1    
    37   18   19 1    
    38   18   22 1    
    39   18   83 1    
    40   19   20 am   BACKBONE|DICT|INTERRES
    41   19   21 2    
    42   20   84 1    
    43   20   85 1    
    44   22   23 am   BACKBONE|DICT|INTERRES
    45   22   86 1    
    46   23   24 2    
    47   23   25 1    
    48   25   26 1    
    49   25   27 1    
    50   25   87 1    
    51   26   88 1    
    52   26   89 1    
    53   26   90 1    
    54   27   28 am   BACKBONE|DICT|INTERRES
    55   27   91 1    
    56   28   29 2    
    57   28   30 1    
    58   30   31 1    
    59   30   32 1    
    60   30   92 1    
    61   31   93 1    
    62   31   94 1    
    63   31   95 1    
    64   32   33 am   BACKBONE|DICT|INTERRES
    65   32   96 1    
    66   33   34 2    
    67   33   35 1    
    68   35   36 1    
    69   35   37 1    
    70   35   97 1    
    71   36   98 1    
    72   36   99 1    
    73   36  100 1    
    74   37   38 am   BACKBONE|DICT|INTERRES
    75   37  101 1    
    76   38   39 2    
    77   38   40 1    
    78   40   41 1    
    79   40   42 1    
    80   40  102 1    
    81   41  103 1    
    82   41  104 1    
    83   41  105 1    
    84   42   43 am   BACKBONE|DICT|INTERRES
    85   42  106 1    
    86   43   44 2    
    87   43   45 1    
    88   45   46 1    
    89   45   49 1    
    90   45  107 1    
    91   46   47 1    
    92   46  108 1    
    93   46  109 1    
    94   47   48 1    
    95   48  110 1    
    96   48  111 1    
    97   49   50 am   BACKBONE|DICT|INTERRES
    98   49  112 1    
    99   50   51 2    
   100   50   52 1    
   101   52   53 1    
   102   52   54 1    
   103   52  113 1    
   104   53  114 1    
   105   53  115 1    
   106   53  116 1    
   107   54   55 am   BACKBONE|DICT|INTERRES
   108   54  117 1    
   109   55   56 2    
   110   55   57 1    
   111   57   58 1    
   112   57   59 1    
   113   57  118 1    
   114   58  119 1    
   115   58  120 1    
   116   58  121 1    
   117   59   60 am   BACKBONE|DICT|INTERRES
   118   59  122 1    
   119   60   61 2    
   120   60   62 1    
   121   62   63 1    
   122   62   64 1    
   123   62  123 1    
   124   63  124 1    
   125   63  125 1    
   126   63  126 1    
   127   64   65 am   BACKBONE|DICT|INTERRES
   128   64  127 1    
   129   65   66 2    
@<TRIPOS>SUBSTRUCTURE
     1 UNK         1 GROUP             0       ****    0 ROOT    
