@<TRIPOS>MOLECULE
3R134
127   129    1
SMALL
USER_CHARGES


@<TRIPOS>ATOM
      1 CA         32.2105  -50.3666  -57.5855 C.3       0 UNK        -0.1968 
      2 C          32.3473  -49.1953  -56.6258 C.2       0 UNK         0.4852 
      3 O          31.3701  -48.8309  -55.9735 O.2       0 UNK        -0.5359 
      4 N          33.5409  -48.5964  -56.5468 N.am      1 UNK        -0.4300 
      5 CA         33.8764  -47.5003  -55.6325 C.3       1 UNK         0.0863 
      6 C6         34.8644  -46.4954  -56.2817 C.3       11 UNK        -0.0953 
      7 S7         34.1545  -45.6814  -57.7496 S.3       11 UNK        -0.2369 
      8 C8         33.8844  -43.9907  -57.1349 C.3       11 UNK         0.0226 
      9 C9         32.6351  -43.8827  -56.2718 C.ar      11 UNK        -0.0699 
     10 C10        32.7196  -43.9350  -54.8761 C.ar      11 UNK        -0.0804 
     11 C11        31.5747  -43.7661  -54.0895 C.ar      11 UNK        -0.0871 
     12 C12        30.3408  -43.5431  -54.7102 C.ar      11 UNK        -0.1008 
     13 C13        30.2434  -43.5002  -56.1038 C.ar      11 UNK        -0.0735 
     14 C14        31.3931  -43.6766  -56.8778 C.ar      11 UNK        -0.0945 
     15 C15        28.9084  -43.2229  -56.7779 C.3       11 UNK         0.0169 
     16 S16        27.8504  -44.6991  -56.7968 S.3       11 UNK        -0.2669 
     17 C17        26.6562  -44.2989  -55.4765 C.3       11 UNK        -0.0850 
     18 CA         25.5839  -45.4028  -55.3103 C.3       10 UNK         0.0855 
     19 C          24.6985  -45.1523  -54.0646 C.2       10 UNK         0.5543 
     20 N          25.1391  -45.6270  -52.9079 N.am      10 UNK        -0.7343 
     21 O          23.6572  -44.5018  -54.1302 O.2       10 UNK        -0.5027 
     22 N          24.8337  -45.6310  -56.5478 N.am      10 UNK        -0.4495 
     23 C          24.0607  -46.6908  -56.8053 C.2       10 UNK         0.4903 
     24 O          23.7793  -47.5572  -55.9773 O.2       10 UNK        -0.4860 
     25 CA         23.5813  -46.8620  -58.2585 C.3       9 UNK         0.0227 
     26 CB         22.3165  -46.0280  -58.5439 C.3       9 UNK        -0.1964 
     27 N          24.6483  -46.6304  -59.2474 N.am      9 UNK        -0.4231 
     28 C          25.2408  -45.4755  -59.5854 C.2       9 UNK         0.5014 
     29 O          24.9121  -44.3740  -59.1413 O.2       9 UNK        -0.5270 
     30 CA         26.4746  -45.6020  -60.4830 C.3       8 UNK         0.0284 
     31 CB         26.9841  -44.2457  -61.0077 C.3       8 UNK        -0.1977 
     32 N          27.5263  -46.2445  -59.6991 N.am      8 UNK        -0.4342 
     33 C          28.3605  -47.1868  -60.1462 C.2       8 UNK         0.5039 
     34 O          28.3445  -47.6295  -61.2958 O.2       8 UNK        -0.5547 
     35 CA         29.4020  -47.7236  -59.1481 C.3       7 UNK         0.0281 
     36 CB         30.6362  -46.8053  -59.1436 C.3       7 UNK        -0.1963 
     37 N          28.9335  -47.9006  -57.7669 N.am      7 UNK        -0.4444 
     38 C          27.8793  -48.6257  -57.3599 C.2       7 UNK         0.5104 
     39 O          27.0699  -49.1435  -58.1301 O.2       7 UNK        -0.5100 
     40 CA         27.7081  -48.8424  -55.8415 C.3       6 UNK         0.0396 
     41 CB         27.5607  -50.3376  -55.5098 C.3       6 UNK        -0.1801 
     42 N          28.8375  -48.3117  -55.0749 N.am      6 UNK        -0.4747 
     43 C          28.7821  -47.5190  -53.9977 C.2       6 UNK         0.5012 
     44 O          27.7395  -47.1058  -53.4854 O.2       6 UNK        -0.5003 
     45 CA         30.1499  -47.1839  -53.3661 C.3       5 UNK         0.0782 
     46 C46        30.0697  -46.0871  -52.2739 C.3       11 UNK        -0.0868 
     47 S47        31.7324  -45.4529  -51.8718 S.3       11 UNK        -0.2515 
     48 C48        31.6784  -43.7706  -52.5691 C.3       11 UNK         0.0199 
     49 N          30.8294  -48.4018  -52.8983 N.am      5 UNK        -0.4607 
     50 C          30.3563  -49.3036  -52.0246 C.2       4 UNK         0.5031 
     51 O          29.2651  -49.2298  -51.4595 O.2       4 UNK        -0.5119 
     52 CA         31.2763  -50.4899  -51.7129 C.3       4 UNK         0.0263 
     53 CB         31.4629  -51.3952  -52.9444 C.3       4 UNK        -0.1967 
     54 N          32.5739  -50.0273  -51.2182 N.am      4 UNK        -0.4237 
     55 C          32.8038  -49.6516  -49.9496 C.2       3 UNK         0.4908 
     56 O          31.9428  -49.6839  -49.0690 O.2       3 UNK        -0.5102 
     57 CA         34.2248  -49.1932  -49.5668 C.3       3 UNK         0.0241 
     58 CB         34.8310  -50.1358  -48.5114 C.3       3 UNK        -0.1971 
     59 N          35.1284  -49.1412  -50.7165 N.am      3 UNK        -0.4139 
     60 C          35.4399  -48.0341  -51.4007 C.2       2 UNK         0.5016 
     61 O          35.0706  -46.9019  -51.0865 O.2       2 UNK        -0.5319 
     62 CA         36.2959  -48.2131  -52.6710 C.3       2 UNK         0.0286 
     63 CB         36.8058  -49.6558  -52.9000 C.3       2 UNK        -0.1963 
     64 N          35.5986  -47.7333  -53.8711 N.am      2 UNK        -0.4790 
     65 C          34.3840  -48.1081  -54.3060 C.2       1 UNK         0.5024 
     66 O          33.6705  -48.9150  -53.7058 O.2       1 UNK        -0.4888 
     67 H67        33.1299  -50.5495  -58.1412 H         1 UNK         0.0892 
     68 H68        31.4132  -50.1719  -58.3017 H         1 UNK         0.0892 
     69 H69        31.9590  -51.2718  -57.0336 H         1 UNK         0.0892 
     70 H70        34.3072  -48.9471  -57.1027 H         1 UNK         0.3107 
     71 H71        32.9688  -46.9469  -55.3825 H         1 UNK         0.0773 
     72 H72        35.1617  -45.7248  -55.5690 H         1 UNK         0.0680 
     73 H73        35.7817  -46.9991  -56.5923 H         1 UNK         0.0680 
     74 H74        34.7636  -43.6451  -56.5892 H         1 UNK         0.0650 
     75 H75        33.7882  -43.3249  -57.9938 H         1 UNK         0.0650 
     76 H76        33.6781  -44.0858  -54.3988 H         1 UNK         0.1397 
     77 H77        29.4555  -43.3885  -54.1099 H         1 UNK         0.1363 
     78 H78        31.3279  -43.6298  -57.9563 H         1 UNK         0.1355 
     79 H79        29.0645  -42.8997  -57.8084 H         1 UNK         0.0707 
     80 H80        28.4041  -42.3949  -56.2777 H         1 UNK         0.0707 
     81 H81        26.1836  -43.3397  -55.6961 H         1 UNK         0.1034 
     82 H82        27.2115  -44.1683  -54.5460 H         1 UNK         0.1034 
     83 H83        26.1103  -46.3342  -55.1346 H         1 UNK         0.0482 
     84 H84        26.0017  -46.1610  -52.8784 H         1 UNK         0.3460 
     85 H85        24.6050  -45.4752  -52.0671 H         1 UNK         0.3460 
     86 H86        24.9806  -44.9628  -57.2980 H         1 UNK         0.2989 
     87 H87        23.3067  -47.9117  -58.3746 H         1 UNK         0.0559 
     88 H88        22.4822  -44.9610  -58.3940 H         1 UNK         0.0848 
     89 H89        21.5039  -46.3212  -57.8781 H         1 UNK         0.0848 
     90 H90        21.9668  -46.1736  -59.5659 H         1 UNK         0.0848 
     91 H91        25.0581  -47.4755  -59.6241 H         1 UNK         0.3144 
     92 H92        26.1949  -46.2231  -61.3368 H         1 UNK         0.0727 
     93 H93        27.8348  -44.3760  -61.6767 H         1 UNK         0.0790 
     94 H94        27.2969  -43.5898  -60.1939 H         1 UNK         0.0790 
     95 H95        26.2057  -43.7263  -61.5680 H         1 UNK         0.0790 
     96 H96        27.6054  -45.9478  -58.7327 H         1 UNK         0.3215 
     97 H97        29.7095  -48.7078  -59.5062 H         1 UNK         0.0863 
     98 H98        31.4441  -47.2152  -58.5398 H         1 UNK         0.0808 
     99 H99        30.3976  -45.8163  -58.7516 H         1 UNK         0.0808 
    100 H100       31.0286  -46.6696  -60.1524 H         1 UNK         0.0808 
    101 H101       29.5286  -47.5172  -57.0464 H         1 UNK         0.3118 
    102 H102       26.7836  -48.3458  -55.5524 H         1 UNK         0.0546 
    103 H103       26.7022  -50.7732  -56.0227 H         1 UNK         0.0828 
    104 H104       27.4095  -50.4915  -54.4412 H         1 UNK         0.0828 
    105 H105       28.4442  -50.9035  -55.8079 H         1 UNK         0.0828 
    106 H106       29.7650  -48.6114  -55.3876 H         1 UNK         0.3005 
    107 H107       30.7537  -46.7837  -54.1829 H         1 UNK         0.1257 
    108 H108       29.6106  -46.4764  -51.3639 H         1 UNK         0.0775 
    109 H109       29.4376  -45.2581  -52.5938 H         1 UNK         0.0775 
    110 H110       30.8471  -43.2216  -52.1240 H         1 UNK         0.0840 
    111 H111       32.5824  -43.2398  -52.2669 H         1 UNK         0.0840 
    112 H112       31.7395  -48.5795  -53.3116 H         1 UNK         0.2987 
    113 H113       30.7976  -51.0905  -50.9360 H         1 UNK         0.0785 
    114 H114       31.9349  -50.8733  -53.7769 H         1 UNK         0.0798 
    115 H115       30.5006  -51.7644  -53.3015 H         1 UNK         0.0798 
    116 H116       32.0752  -52.2649  -52.7059 H         1 UNK         0.0798 
    117 H117       33.2892  -49.8674  -51.9187 H         1 UNK         0.3079 
    118 H118       34.1310  -48.2011  -49.1199 H         1 UNK         0.0794 
    119 H119       34.9217  -51.1566  -48.8848 H         1 UNK         0.0786 
    120 H120       34.2120  -50.1707  -47.6138 H         1 UNK         0.0786 
    121 H121       35.8221  -49.8012  -48.2044 H         1 UNK         0.0786 
    122 H122       35.4821  -50.0256  -51.0530 H         1 UNK         0.3032 
    123 H123       37.1686  -47.5719  -52.5347 H         1 UNK         0.1094 
    124 H124       37.4600  -49.7009  -53.7709 H         1 UNK         0.0794 
    125 H125       37.3912  -50.0111  -52.0507 H         1 UNK         0.0794 
    126 H126       35.9924  -50.3625  -53.0696 H         1 UNK         0.0794 
    127 H127       36.0986  -47.0396  -54.4088 H         1 UNK         0.3016 
@<TRIPOS>BOND
     1    1    2 1    
     2    1   67 1    
     3    1   68 1    
     4    1   69 1    
     5    2    3 2    
     6    2    4 am   BACKBONE|DICT|INTERRES
     7    4    5 1    
     8    4   70 1    
     9    5    6 1    
    10    5   65 1    
    11    5   71 1    
    12    6    7 1    
    13    6   72 1    
    14    6   73 1    
    15    7    8 1    
    16    8    9 1    
    17    8   74 1    
    18    8   75 1    
    19    9   10 ar   
    20    9   14 ar   
    21   10   11 ar   
    22   10   76 1    
    23   11   12 ar   
    24   11   48 1    
    25   12   13 ar   
    26   12   77 1    
    27   13   14 ar   
    28   13   15 1    
    29   14   78 1    
    30   15   16 1    
    31   15   79 1    
    32   15   80 1    
    33   16   17 1    
    34   17   18 1    
    35   17   81 1    
    36   17   82 1    
    37   18   19 1    
    38   18   22 1    
    39   18   83 1    
    40   19   20 am   BACKBONE|DICT|INTERRES
    41   19   21 2    
    42   20   84 1    
    43   20   85 1    
    44   22   23 am   BACKBONE|DICT|INTERRES
    45   22   86 1    
    46   23   24 2    
    47   23   25 1    
    48   25   26 1    
    49   25   27 1    
    50   25   87 1    
    51   26   88 1    
    52   26   89 1    
    53   26   90 1    
    54   27   28 am   BACKBONE|DICT|INTERRES
    55   27   91 1    
    56   28   29 2    
    57   28   30 1    
    58   30   31 1    
    59   30   32 1    
    60   30   92 1    
    61   31   93 1    
    62   31   94 1    
    63   31   95 1    
    64   32   33 am   BACKBONE|DICT|INTERRES
    65   32   96 1    
    66   33   34 2    
    67   33   35 1    
    68   35   36 1    
    69   35   37 1    
    70   35   97 1    
    71   36   98 1    
    72   36   99 1    
    73   36  100 1    
    74   37   38 am   BACKBONE|DICT|INTERRES
    75   37  101 1    
    76   38   39 2    
    77   38   40 1    
    78   40   41 1    
    79   40   42 1    
    80   40  102 1    
    81   41  103 1    
    82   41  104 1    
    83   41  105 1    
    84   42   43 am   BACKBONE|DICT|INTERRES
    85   42  106 1    
    86   43   44 2    
    87   43   45 1    
    88   45   46 1    
    89   45   49 1    
    90   45  107 1    
    91   46   47 1    
    92   46  108 1    
    93   46  109 1    
    94   47   48 1    
    95   48  110 1    
    96   48  111 1    
    97   49   50 am   BACKBONE|DICT|INTERRES
    98   49  112 1    
    99   50   51 2    
   100   50   52 1    
   101   52   53 1    
   102   52   54 1    
   103   52  113 1    
   104   53  114 1    
   105   53  115 1    
   106   53  116 1    
   107   54   55 am   BACKBONE|DICT|INTERRES
   108   54  117 1    
   109   55   56 2    
   110   55   57 1    
   111   57   58 1    
   112   57   59 1    
   113   57  118 1    
   114   58  119 1    
   115   58  120 1    
   116   58  121 1    
   117   59   60 am   BACKBONE|DICT|INTERRES
   118   59  122 1    
   119   60   61 2    
   120   60   62 1    
   121   62   63 1    
   122   62   64 1    
   123   62  123 1    
   124   63  124 1    
   125   63  125 1    
   126   63  126 1    
   127   64   65 am   BACKBONE|DICT|INTERRES
   128   64  127 1    
   129   65   66 2    
@<TRIPOS>SUBSTRUCTURE
     1 UNK         1 GROUP             0       ****    0 ROOT    
