@<TRIPOS>MOLECULE
3R134
127   129    1
SMALL
USER_CHARGES


@<TRIPOS>ATOM
      1 CA         31.4701  -47.9731  -48.7167 C.3       0 UNK        -0.1968 
      2 C          32.1627  -47.5651  -50.0080 C.2       0 UNK         0.4852 
      3 O          32.2505  -48.3781  -50.9274 O.2       0 UNK        -0.5359 
      4 N          32.6367  -46.3119  -50.0807 N.am      1 UNK        -0.4300 
      5 CA         33.3521  -45.6918  -51.2073 C.3       1 UNK         0.0863 
      6 C6         33.6117  -44.1904  -50.9097 C.3       11 UNK        -0.0953 
      7 S7         34.8801  -43.4175  -51.9669 S.3       11 UNK        -0.2369 
      8 C8         33.9168  -42.2022  -52.9415 C.3       11 UNK         0.0226 
      9 C9         33.4670  -42.7197  -54.3064 C.ar      11 UNK        -0.0699 
     10 C10        34.3616  -43.4180  -55.1239 C.ar      11 UNK        -0.0804 
     11 C11        33.9762  -43.8615  -56.3894 C.ar      11 UNK        -0.0871 
     12 C12        32.6925  -43.5740  -56.8572 C.ar      11 UNK        -0.1008 
     13 C13        31.7791  -42.8817  -56.0554 C.ar      11 UNK        -0.0735 
     14 C14        32.1744  -42.4551  -54.7799 C.ar      11 UNK        -0.0945 
     15 C15        30.3712  -42.6040  -56.5767 C.3       11 UNK         0.0169 
     16 S16        29.5225  -44.1443  -57.0568 S.3       11 UNK        -0.2669 
     17 C17        27.9133  -43.5554  -57.6895 C.3       11 UNK        -0.0850 
     18 CA         26.7498  -43.7023  -56.6704 C.3       10 UNK         0.0855 
     19 C          25.4083  -43.2479  -57.3062 C.2       10 UNK         0.5543 
     20 N          25.0374  -41.9860  -57.1384 N.am      10 UNK        -0.7343 
     21 O          24.7319  -44.0141  -57.9895 O.2       10 UNK        -0.5027 
     22 N          26.6812  -45.0576  -56.1016 N.am      10 UNK        -0.4495 
     23 C          25.9520  -45.4083  -55.0345 C.2       10 UNK         0.4903 
     24 O          25.1781  -44.6516  -54.4454 O.2       10 UNK        -0.4860 
     25 CA         26.1897  -46.8370  -54.5141 C.3       9 UNK         0.0227 
     26 CB         25.5114  -47.1196  -53.1563 C.3       9 UNK        -0.1964 
     27 N          25.8556  -47.8630  -55.5050 N.am      9 UNK        -0.4231 
     28 C          24.6466  -48.1649  -56.0032 C.2       9 UNK         0.5014 
     29 O          23.6073  -47.5799  -55.6952 O.2       9 UNK        -0.5270 
     30 CA         24.5715  -49.3209  -57.0230 C.3       8 UNK         0.0284 
     31 CB         24.1313  -48.7958  -58.4005 C.3       8 UNK        -0.1977 
     32 N          25.8285  -50.0575  -57.1872 N.am      8 UNK        -0.4342 
     33 C          26.3809  -50.9091  -56.3149 C.2       8 UNK         0.5039 
     34 O          25.8510  -51.2308  -55.2518 O.2       8 UNK        -0.5547 
     35 CA         27.7809  -51.4578  -56.6596 C.3       7 UNK         0.0281 
     36 CB         27.6871  -52.6994  -57.5686 C.3       7 UNK        -0.1963 
     37 N          28.7145  -50.4473  -57.1983 N.am      7 UNK        -0.4444 
     38 C          28.6348  -49.7918  -58.3668 C.2       7 UNK         0.5104 
     39 O          27.7555  -50.0070  -59.2023 O.2       7 UNK        -0.5100 
     40 CA         29.6271  -48.6566  -58.6485 C.3       6 UNK         0.0396 
     41 CB         28.8901  -47.3079  -58.6162 C.3       6 UNK        -0.1801 
     42 N          30.7633  -48.5861  -57.7242 N.am      6 UNK        -0.4747 
     43 C          31.9976  -48.9931  -58.0537 C.2       6 UNK         0.5012 
     44 O          32.2464  -49.6860  -59.0418 O.2       6 UNK        -0.5003 
     45 CA         33.1616  -48.4942  -57.1791 C.3       5 UNK         0.0782 
     46 C46        33.3290  -46.9615  -57.3043 C.3       11 UNK        -0.0868 
     47 S47        34.9681  -46.4150  -56.7267 S.3       11 UNK        -0.2515 
     48 C48        34.9461  -44.6677  -57.2379 C.3       11 UNK         0.0199 
     49 N          33.0117  -48.9240  -55.7900 N.am      5 UNK        -0.4607 
     50 C          33.3305  -50.1454  -55.3451 C.2       4 UNK         0.5031 
     51 O          33.8212  -51.0271  -56.0509 O.2       4 UNK        -0.5119 
     52 CA         33.0511  -50.4427  -53.8615 C.3       4 UNK         0.0263 
     53 CB         34.2537  -50.0343  -52.9959 C.3       4 UNK        -0.1967 
     54 N          31.8402  -49.7919  -53.3543 N.am      4 UNK        -0.4237 
     55 C          30.6037  -50.0194  -53.8202 C.2       3 UNK         0.4908 
     56 O          30.3463  -50.8230  -54.7147 O.2       3 UNK        -0.5102 
     57 CA         29.4656  -49.1768  -53.2264 C.3       3 UNK         0.0241 
     58 CB         29.0060  -49.7389  -51.8723 C.3       3 UNK        -0.1971 
     59 N          29.8390  -47.7701  -53.0819 N.am      3 UNK        -0.4139 
     60 C          30.0655  -46.9379  -54.1076 C.2       2 UNK         0.5016 
     61 O          29.9620  -47.2650  -55.2907 O.2       2 UNK        -0.5319 
     62 CA         30.4839  -45.5054  -53.7461 C.3       2 UNK         0.0286 
     63 CB         29.2605  -44.6185  -53.4735 C.3       2 UNK        -0.1963 
     64 N          31.3565  -45.4424  -52.5786 N.am      2 UNK        -0.4790 
     65 C          32.6207  -45.8809  -52.5512 C.2       1 UNK         0.5024 
     66 O          33.1798  -46.4421  -53.4940 O.2       1 UNK        -0.4888 
     67 H67        31.9777  -48.8307  -48.2762 H         1 UNK         0.0892 
     68 H68        31.4647  -47.1681  -47.9821 H         1 UNK         0.0892 
     69 H69        30.4374  -48.2559  -48.9184 H         1 UNK         0.0892 
     70 H70        32.5171  -45.7140  -49.2754 H         1 UNK         0.3107 
     71 H71        34.3137  -46.2035  -51.2844 H         1 UNK         0.0773 
     72 H72        32.6863  -43.6133  -50.9438 H         1 UNK         0.0680 
     73 H73        33.9775  -44.0836  -49.8871 H         1 UNK         0.0680 
     74 H74        34.5498  -41.3302  -53.1098 H         1 UNK         0.0650 
     75 H75        33.0666  -41.8467  -52.3581 H         1 UNK         0.0650 
     76 H76        35.3612  -43.6308  -54.7709 H         1 UNK         0.1397 
     77 H77        32.3903  -43.9139  -57.8385 H         1 UNK         0.1363 
     78 H78        31.4773  -41.9111  -54.1577 H         1 UNK         0.1355 
     79 H79        30.4356  -41.9395  -57.4393 H         1 UNK         0.0707 
     80 H80        29.7723  -42.0903  -55.8232 H         1 UNK         0.0707 
     81 H81        28.0130  -42.5156  -58.0071 H         1 UNK         0.1034 
     82 H82        27.6925  -44.1229  -58.5959 H         1 UNK         0.1034 
     83 H83        26.9659  -43.0311  -55.8362 H         1 UNK         0.0482 
     84 H84        24.1781  -41.6685  -57.5594 H         1 UNK         0.3460 
     85 H85        25.5898  -41.3472  -56.5877 H         1 UNK         0.3460 
     86 H86        27.2937  -45.7380  -56.5237 H         1 UNK         0.2989 
     87 H87        27.2619  -46.9239  -54.3492 H         1 UNK         0.0559 
     88 H88        24.4262  -47.0289  -53.2136 H         1 UNK         0.0848 
     89 H89        25.8545  -46.4151  -52.3977 H         1 UNK         0.0848 
     90 H90        25.7465  -48.1217  -52.7971 H         1 UNK         0.0848 
     91 H91        26.6309  -48.4135  -55.8429 H         1 UNK         0.3144 
     92 H92        23.8145  -50.0201  -56.6621 H         1 UNK         0.0727 
     93 H93        24.8556  -48.0922  -58.8133 H         1 UNK         0.0790 
     94 H94        23.1736  -48.2772  -58.3357 H         1 UNK         0.0790 
     95 H95        24.0083  -49.6098  -59.1153 H         1 UNK         0.0790 
     96 H96        26.3457  -49.9009  -58.0512 H         1 UNK         0.3215 
     97 H97        28.2134  -51.7917  -55.7162 H         1 UNK         0.0863 
     98 H98        28.6731  -53.1199  -57.7659 H         1 UNK         0.0808 
     99 H99        27.2187  -52.4770  -58.5275 H         1 UNK         0.0808 
    100 H100       27.0912  -53.4805  -57.0945 H         1 UNK         0.0808 
    101 H101       29.4779  -50.2084  -56.5736 H         1 UNK         0.3118 
    102 H102       29.9824  -48.8023  -59.6710 H         1 UNK         0.0546 
    103 H103       28.5155  -47.0784  -57.6189 H         1 UNK         0.0828 
    104 H104       28.0377  -47.3010  -59.2971 H         1 UNK         0.0828 
    105 H105       29.5491  -46.4958  -58.9229 H         1 UNK         0.0828 
    106 H106       30.6158  -48.0566  -56.8655 H         1 UNK         0.3005 
    107 H107       34.0655  -48.9565  -57.5842 H         1 UNK         0.1257 
    108 H108       33.2221  -46.6406  -58.3428 H         1 UNK         0.0775 
    109 H109       32.5545  -46.4409  -56.7369 H         1 UNK         0.0775 
    110 H110       35.9515  -44.2563  -57.1368 H         1 UNK         0.0840 
    111 H111       34.6923  -44.5942  -58.2966 H         1 UNK         0.0840 
    112 H112       32.6499  -48.2425  -55.1364 H         1 UNK         0.2987 
    113 H113       32.9095  -51.5211  -53.7642 H         1 UNK         0.0785 
    114 H114       35.1689  -50.5154  -53.3434 H         1 UNK         0.0798 
    115 H115       34.1090  -50.3241  -51.9549 H         1 UNK         0.0798 
    116 H116       34.4190  -48.9561  -53.0218 H         1 UNK         0.0798 
    117 H117       31.9639  -49.1442  -52.5766 H         1 UNK         0.3079 
    118 H118       28.6207  -49.2293  -53.9167 H         1 UNK         0.0794 
    119 H119       28.1553  -49.1814  -51.4800 H         1 UNK         0.0786 
    120 H120       29.8019  -49.7079  -51.1274 H         1 UNK         0.0786 
    121 H121       28.6926  -50.7791  -51.9708 H         1 UNK         0.0786 
    122 H122       29.9975  -47.4298  -52.1452 H         1 UNK         0.3032 
    123 H123       31.0319  -45.1067  -54.6014 H         1 UNK         0.1094 
    124 H124       28.6521  -44.9980  -52.6517 H         1 UNK         0.0794 
    125 H125       29.5561  -43.5974  -53.2327 H         1 UNK         0.0794 
    126 H126       28.6241  -44.5596  -54.3509 H         1 UNK         0.0794 
    127 H127       30.9779  -45.0135  -51.7469 H         1 UNK         0.3016 
@<TRIPOS>BOND
     1    1    2 1    
     2    1   67 1    
     3    1   68 1    
     4    1   69 1    
     5    2    3 2    
     6    2    4 am   BACKBONE|DICT|INTERRES
     7    4    5 1    
     8    4   70 1    
     9    5    6 1    
    10    5   65 1    
    11    5   71 1    
    12    6    7 1    
    13    6   72 1    
    14    6   73 1    
    15    7    8 1    
    16    8    9 1    
    17    8   74 1    
    18    8   75 1    
    19    9   10 ar   
    20    9   14 ar   
    21   10   11 ar   
    22   10   76 1    
    23   11   12 ar   
    24   11   48 1    
    25   12   13 ar   
    26   12   77 1    
    27   13   14 ar   
    28   13   15 1    
    29   14   78 1    
    30   15   16 1    
    31   15   79 1    
    32   15   80 1    
    33   16   17 1    
    34   17   18 1    
    35   17   81 1    
    36   17   82 1    
    37   18   19 1    
    38   18   22 1    
    39   18   83 1    
    40   19   20 am   BACKBONE|DICT|INTERRES
    41   19   21 2    
    42   20   84 1    
    43   20   85 1    
    44   22   23 am   BACKBONE|DICT|INTERRES
    45   22   86 1    
    46   23   24 2    
    47   23   25 1    
    48   25   26 1    
    49   25   27 1    
    50   25   87 1    
    51   26   88 1    
    52   26   89 1    
    53   26   90 1    
    54   27   28 am   BACKBONE|DICT|INTERRES
    55   27   91 1    
    56   28   29 2    
    57   28   30 1    
    58   30   31 1    
    59   30   32 1    
    60   30   92 1    
    61   31   93 1    
    62   31   94 1    
    63   31   95 1    
    64   32   33 am   BACKBONE|DICT|INTERRES
    65   32   96 1    
    66   33   34 2    
    67   33   35 1    
    68   35   36 1    
    69   35   37 1    
    70   35   97 1    
    71   36   98 1    
    72   36   99 1    
    73   36  100 1    
    74   37   38 am   BACKBONE|DICT|INTERRES
    75   37  101 1    
    76   38   39 2    
    77   38   40 1    
    78   40   41 1    
    79   40   42 1    
    80   40  102 1    
    81   41  103 1    
    82   41  104 1    
    83   41  105 1    
    84   42   43 am   BACKBONE|DICT|INTERRES
    85   42  106 1    
    86   43   44 2    
    87   43   45 1    
    88   45   46 1    
    89   45   49 1    
    90   45  107 1    
    91   46   47 1    
    92   46  108 1    
    93   46  109 1    
    94   47   48 1    
    95   48  110 1    
    96   48  111 1    
    97   49   50 am   BACKBONE|DICT|INTERRES
    98   49  112 1    
    99   50   51 2    
   100   50   52 1    
   101   52   53 1    
   102   52   54 1    
   103   52  113 1    
   104   53  114 1    
   105   53  115 1    
   106   53  116 1    
   107   54   55 am   BACKBONE|DICT|INTERRES
   108   54  117 1    
   109   55   56 2    
   110   55   57 1    
   111   57   58 1    
   112   57   59 1    
   113   57  118 1    
   114   58  119 1    
   115   58  120 1    
   116   58  121 1    
   117   59   60 am   BACKBONE|DICT|INTERRES
   118   59  122 1    
   119   60   61 2    
   120   60   62 1    
   121   62   63 1    
   122   62   64 1    
   123   62  123 1    
   124   63  124 1    
   125   63  125 1    
   126   63  126 1    
   127   64   65 am   BACKBONE|DICT|INTERRES
   128   64  127 1    
   129   65   66 2    
@<TRIPOS>SUBSTRUCTURE
     1 UNK         1 GROUP             0       ****    0 ROOT    
