@<TRIPOS>MOLECULE
3R134
127   129    1
SMALL
USER_CHARGES


@<TRIPOS>ATOM
      1 CA         38.4275  -44.1051  -56.6779 C.3       0 UNK        -0.1968 
      2 C          37.4271  -44.9276  -55.8783 C.2       0 UNK         0.4852 
      3 O          37.8363  -45.7419  -55.0490 O.2       0 UNK        -0.5359 
      4 N          36.1259  -44.7135  -56.1216 N.am      1 UNK        -0.4300 
      5 CA         34.9985  -45.4241  -55.5061 C.3       1 UNK         0.0863 
      6 C6         34.9136  -45.1972  -53.9657 C.3       11 UNK        -0.0953 
      7 S7         33.2179  -45.3778  -53.3187 S.3       11 UNK        -0.2369 
      8 C8         32.6546  -43.6511  -53.2787 C.3       11 UNK         0.0226 
      9 C9         31.1370  -43.6007  -53.3014 C.ar      11 UNK        -0.0699 
     10 C10        30.4052  -43.7825  -52.1245 C.ar      11 UNK        -0.0804 
     11 C11        29.0077  -43.7975  -52.1557 C.ar      11 UNK        -0.0871 
     12 C12        28.3448  -43.6265  -53.3749 C.ar      11 UNK        -0.1008 
     13 C13        29.0671  -43.4325  -54.5563 C.ar      11 UNK        -0.0735 
     14 C14        30.4633  -43.4107  -54.5108 C.ar      11 UNK        -0.0945 
     15 C15        28.3425  -43.2921  -55.8863 C.3       11 UNK         0.0169 
     16 S16        27.2400  -41.8450  -55.9042 S.3       11 UNK        -0.2669 
     17 C17        26.7177  -41.7868  -57.6516 C.3       11 UNK        -0.0850 
     18 CA         25.4372  -42.6321  -57.9264 C.3       10 UNK         0.0855 
     19 C          24.6653  -42.1816  -59.2079 C.2       10 UNK         0.5543 
     20 N          23.9557  -43.0694  -59.8943 N.am      10 UNK        -0.7343 
     21 O          24.6746  -41.0070  -59.5686 O.2       10 UNK        -0.5027 
     22 N          25.6877  -44.0854  -57.8362 N.am      10 UNK        -0.4495 
     23 C          26.4514  -44.8036  -58.6725 C.2       10 UNK         0.4903 
     24 O          27.0504  -44.3252  -59.6365 O.2       10 UNK        -0.4860 
     25 CA         26.5211  -46.3146  -58.3906 C.3       9 UNK         0.0227 
     26 CB         26.2754  -47.1493  -59.6635 C.3       9 UNK        -0.1964 
     27 N          27.7611  -46.7247  -57.7226 N.am      9 UNK        -0.4231 
     28 C          29.0245  -46.6799  -58.1778 C.2       9 UNK         0.5014 
     29 O          29.3725  -46.1953  -59.2544 O.2       9 UNK        -0.5270 
     30 CA         30.0897  -47.3553  -57.2939 C.3       8 UNK         0.0284 
     31 CB         30.5418  -46.4306  -56.1536 C.3       8 UNK        -0.1977 
     32 N          29.6284  -48.6318  -56.7432 N.am      8 UNK        -0.4342 
     33 C          29.3739  -49.7301  -57.4710 C.2       8 UNK         0.5039 
     34 O          29.5801  -49.8190  -58.6817 O.2       8 UNK        -0.5547 
     35 CA         28.7660  -50.9282  -56.7250 C.3       7 UNK         0.0281 
     36 CB         29.8598  -51.7894  -56.0702 C.3       7 UNK        -0.1963 
     37 N          27.7958  -50.4936  -55.7178 N.am      7 UNK        -0.4444 
     38 C          26.5453  -50.0990  -56.0001 C.2       7 UNK         0.5104 
     39 O          26.0492  -50.1447  -57.1256 O.2       7 UNK        -0.5100 
     40 CA         25.7029  -49.5514  -54.8338 C.3       6 UNK         0.0396 
     41 CB         24.8647  -50.6755  -54.2050 C.3       6 UNK        -0.1801 
     42 N          26.5037  -48.9040  -53.7912 N.am      6 UNK        -0.4747 
     43 C          27.1592  -47.7428  -53.9401 C.2       6 UNK         0.5012 
     44 O          27.1408  -47.0758  -54.9744 O.2       6 UNK        -0.5003 
     45 CA         28.0225  -47.2823  -52.7480 C.3       5 UNK         0.0782 
     46 C46        27.1592  -46.4847  -51.7403 C.3       11 UNK        -0.0868 
     47 S47        28.1569  -45.7632  -50.3937 S.3       11 UNK        -0.2515 
     48 C48        28.2167  -44.0072  -50.8731 C.3       11 UNK         0.0199 
     49 N          28.7225  -48.4027  -52.1037 N.am      5 UNK        -0.4607 
     50 C          29.5944  -49.2178  -52.7078 C.2       4 UNK         0.5031 
     51 O          29.9140  -49.1259  -53.8964 O.2       4 UNK        -0.5119 
     52 CA         30.1373  -50.3736  -51.8640 C.3       4 UNK         0.0263 
     53 CB         29.1004  -51.5101  -51.7731 C.3       4 UNK        -0.1967 
     54 N          31.3632  -50.8672  -52.4808 N.am      4 UNK        -0.4237 
     55 C          32.3223  -51.5687  -51.8650 C.2       3 UNK         0.4908 
     56 O          32.2632  -51.9103  -50.6828 O.2       3 UNK        -0.5102 
     57 CA         33.5575  -51.9743  -52.6954 C.3       3 UNK         0.0241 
     58 CB         33.4684  -53.4583  -53.0895 C.3       3 UNK        -0.1971 
     59 N          33.7729  -51.1736  -53.9067 N.am      3 UNK        -0.4139 
     60 C          34.0835  -49.8705  -53.9201 C.2       2 UNK         0.5016 
     61 O          34.2311  -49.1930  -52.8988 O.2       2 UNK        -0.5319 
     62 CA         34.2332  -49.2149  -55.3019 C.3       2 UNK         0.0286 
     63 CB         33.0110  -49.4843  -56.2027 C.3       2 UNK        -0.1963 
     64 N          34.3971  -47.7787  -55.1061 N.am      2 UNK        -0.4790 
     65 C          34.9469  -46.9072  -55.9553 C.2       1 UNK         0.5024 
     66 O          35.3719  -47.2268  -57.0687 O.2       1 UNK        -0.4888 
     67 H67        39.0563  -43.5221  -56.0055 H         1 UNK         0.0892 
     68 H68        39.0707  -44.7624  -57.2624 H         1 UNK         0.0892 
     69 H69        37.9351  -43.4157  -57.3636 H         1 UNK         0.0892 
     70 H70        35.8692  -44.0524  -56.8414 H         1 UNK         0.3107 
     71 H71        34.1151  -44.9651  -55.9531 H         1 UNK         0.0773 
     72 H72        35.5757  -45.8792  -53.4289 H         1 UNK         0.0680 
     73 H73        35.2645  -44.1954  -53.7127 H         1 UNK         0.0680 
     74 H74        33.0609  -43.1091  -54.1342 H         1 UNK         0.0650 
     75 H75        33.0405  -43.1606  -52.3839 H         1 UNK         0.0650 
     76 H76        30.9241  -43.9366  -51.1880 H         1 UNK         0.1397 
     77 H77        27.2642  -43.6462  -53.4110 H         1 UNK         0.1363 
     78 H78        31.0295  -43.2753  -55.4220 H         1 UNK         0.1355 
     79 H79        29.0532  -43.2173  -56.7109 H         1 UNK         0.0707 
     80 H80        27.7615  -44.1983  -56.0548 H         1 UNK         0.0707 
     81 H81        26.5398  -40.7327  -57.8706 H         1 UNK         0.1034 
     82 H82        27.5400  -42.0825  -58.3043 H         1 UNK         0.1034 
     83 H83        24.7341  -42.4148  -57.1214 H         1 UNK         0.0482 
     84 H84        23.4498  -42.7708  -60.7133 H         1 UNK         0.3460 
     85 H85        23.9257  -44.0333  -59.6044 H         1 UNK         0.3460 
     86 H86        25.2141  -44.5599  -57.0808 H         1 UNK         0.2989 
     87 H87        25.7202  -46.5616  -57.6916 H         1 UNK         0.0559 
     88 H88        25.3146  -46.8989  -60.1143 H         1 UNK         0.0848 
     89 H89        26.2618  -48.2161  -59.4385 H         1 UNK         0.0848 
     90 H90        27.0421  -46.9772  -60.4196 H         1 UNK         0.0848 
     91 H91        27.6274  -47.0653  -56.7725 H         1 UNK         0.3144 
     92 H92        30.9590  -47.5620  -57.9217 H         1 UNK         0.0727 
     93 H93        29.7217  -46.1896  -55.4776 H         1 UNK         0.0790 
     94 H94        30.9285  -45.4920  -56.5507 H         1 UNK         0.0790 
     95 H95        31.3377  -46.8816  -55.5611 H         1 UNK         0.0790 
     96 H96        29.5086  -48.6821  -55.7353 H         1 UNK         0.3215 
     97 H97        28.2483  -51.5489  -57.4600 H         1 UNK         0.0863 
     98 H98        29.4334  -52.6570  -55.5665 H         1 UNK         0.0808 
     99 H99        30.4419  -51.2306  -55.3394 H         1 UNK         0.0808 
    100 H100       30.5577  -52.1623  -56.8210 H         1 UNK         0.0808 
    101 H101       28.1361  -50.3790  -54.7743 H         1 UNK         0.3118 
    102 H102       25.0187  -48.8057  -55.2445 H         1 UNK         0.0546 
    103 H103       25.4918  -51.4480  -53.7580 H         1 UNK         0.0828 
    104 H104       24.2374  -51.1597  -54.9549 H         1 UNK         0.0828 
    105 H105       24.2006  -50.2908  -53.4308 H         1 UNK         0.0828 
    106 H106       26.5741  -49.3834  -52.9051 H         1 UNK         0.3005 
    107 H107       28.7864  -46.6140  -53.1527 H         1 UNK         0.1257 
    108 H108       26.4036  -47.1304  -51.2886 H         1 UNK         0.0775 
    109 H109       26.6061  -45.6896  -52.2433 H         1 UNK         0.0775 
    110 H110       27.2014  -43.6203  -50.9749 H         1 UNK         0.0840 
    111 H111       28.6771  -43.4369  -50.0650 H         1 UNK         0.0840 
    112 H112       28.5226  -48.5379  -51.1230 H         1 UNK         0.2987 
    113 H113       30.3653  -49.9953  -50.8651 H         1 UNK         0.0785 
    114 H114       28.1681  -51.1624  -51.3266 H         1 UNK         0.0798 
    115 H115       29.4634  -52.3302  -51.1536 H         1 UNK         0.0798 
    116 H116       28.8623  -51.9179  -52.7564 H         1 UNK         0.0798 
    117 H117       31.4979  -50.5631  -53.4359 H         1 UNK         0.3079 
    118 H118       34.4309  -51.8434  -52.0529 H         1 UNK         0.0794 
    119 H119       34.3748  -53.7911  -53.5957 H         1 UNK         0.0786 
    120 H120       32.6223  -53.6502  -53.7508 H         1 UNK         0.0786 
    121 H121       33.3426  -54.0901  -52.2089 H         1 UNK         0.0786 
    122 H122       33.6801  -51.6596  -54.7870 H         1 UNK         0.3032 
    123 H123       35.1350  -49.6153  -55.7705 H         1 UNK         0.1094 
    124 H124       32.0858  -49.2081  -55.6988 H         1 UNK         0.0794 
    125 H125       33.0636  -48.9209  -57.1343 H         1 UNK         0.0794 
    126 H126       32.9354  -50.5368  -56.4764 H         1 UNK         0.0794 
    127 H127       34.1137  -47.4542  -54.1868 H         1 UNK         0.3016 
@<TRIPOS>BOND
     1    1    2 1    
     2    1   67 1    
     3    1   68 1    
     4    1   69 1    
     5    2    3 2    
     6    2    4 am   BACKBONE|DICT|INTERRES
     7    4    5 1    
     8    4   70 1    
     9    5    6 1    
    10    5   65 1    
    11    5   71 1    
    12    6    7 1    
    13    6   72 1    
    14    6   73 1    
    15    7    8 1    
    16    8    9 1    
    17    8   74 1    
    18    8   75 1    
    19    9   10 ar   
    20    9   14 ar   
    21   10   11 ar   
    22   10   76 1    
    23   11   12 ar   
    24   11   48 1    
    25   12   13 ar   
    26   12   77 1    
    27   13   14 ar   
    28   13   15 1    
    29   14   78 1    
    30   15   16 1    
    31   15   79 1    
    32   15   80 1    
    33   16   17 1    
    34   17   18 1    
    35   17   81 1    
    36   17   82 1    
    37   18   19 1    
    38   18   22 1    
    39   18   83 1    
    40   19   20 am   BACKBONE|DICT|INTERRES
    41   19   21 2    
    42   20   84 1    
    43   20   85 1    
    44   22   23 am   BACKBONE|DICT|INTERRES
    45   22   86 1    
    46   23   24 2    
    47   23   25 1    
    48   25   26 1    
    49   25   27 1    
    50   25   87 1    
    51   26   88 1    
    52   26   89 1    
    53   26   90 1    
    54   27   28 am   BACKBONE|DICT|INTERRES
    55   27   91 1    
    56   28   29 2    
    57   28   30 1    
    58   30   31 1    
    59   30   32 1    
    60   30   92 1    
    61   31   93 1    
    62   31   94 1    
    63   31   95 1    
    64   32   33 am   BACKBONE|DICT|INTERRES
    65   32   96 1    
    66   33   34 2    
    67   33   35 1    
    68   35   36 1    
    69   35   37 1    
    70   35   97 1    
    71   36   98 1    
    72   36   99 1    
    73   36  100 1    
    74   37   38 am   BACKBONE|DICT|INTERRES
    75   37  101 1    
    76   38   39 2    
    77   38   40 1    
    78   40   41 1    
    79   40   42 1    
    80   40  102 1    
    81   41  103 1    
    82   41  104 1    
    83   41  105 1    
    84   42   43 am   BACKBONE|DICT|INTERRES
    85   42  106 1    
    86   43   44 2    
    87   43   45 1    
    88   45   46 1    
    89   45   49 1    
    90   45  107 1    
    91   46   47 1    
    92   46  108 1    
    93   46  109 1    
    94   47   48 1    
    95   48  110 1    
    96   48  111 1    
    97   49   50 am   BACKBONE|DICT|INTERRES
    98   49  112 1    
    99   50   51 2    
   100   50   52 1    
   101   52   53 1    
   102   52   54 1    
   103   52  113 1    
   104   53  114 1    
   105   53  115 1    
   106   53  116 1    
   107   54   55 am   BACKBONE|DICT|INTERRES
   108   54  117 1    
   109   55   56 2    
   110   55   57 1    
   111   57   58 1    
   112   57   59 1    
   113   57  118 1    
   114   58  119 1    
   115   58  120 1    
   116   58  121 1    
   117   59   60 am   BACKBONE|DICT|INTERRES
   118   59  122 1    
   119   60   61 2    
   120   60   62 1    
   121   62   63 1    
   122   62   64 1    
   123   62  123 1    
   124   63  124 1    
   125   63  125 1    
   126   63  126 1    
   127   64   65 am   BACKBONE|DICT|INTERRES
   128   64  127 1    
   129   65   66 2    
@<TRIPOS>SUBSTRUCTURE
     1 UNK         1 GROUP             0       ****    0 ROOT    
