@<TRIPOS>MOLECULE
3R134
127   129    1
SMALL
USER_CHARGES


@<TRIPOS>ATOM
      1 CA         36.2018  -46.6382  -49.8433 C.3       0 UNK        -0.1968 
      2 C          35.4475  -46.8351  -51.1490 C.2       0 UNK         0.4852 
      3 O          34.9428  -47.9304  -51.4058 O.2       0 UNK        -0.5359 
      4 N          35.3440  -45.7797  -51.9717 N.am      1 UNK        -0.4300 
      5 CA         34.6791  -45.8004  -53.2824 C.3       1 UNK         0.0863 
      6 C6         34.9201  -44.5012  -54.0889 C.3       11 UNK        -0.0953 
      7 S7         34.1400  -43.0019  -53.3884 S.3       11 UNK        -0.2369 
      8 C8         33.9529  -41.9528  -54.8677 C.3       11 UNK         0.0226 
      9 C9         32.7043  -42.2842  -55.6783 C.ar      11 UNK        -0.0699 
     10 C10        32.7537  -43.2473  -56.6890 C.ar      11 UNK        -0.0804 
     11 C11        31.6224  -43.5390  -57.4549 C.ar      11 UNK        -0.0871 
     12 C12        30.4428  -42.8215  -57.2377 C.ar      11 UNK        -0.1008 
     13 C13        30.3779  -41.8383  -56.2420 C.ar      11 UNK        -0.0735 
     14 C14        31.5104  -41.5884  -55.4570 C.ar      11 UNK        -0.0945 
     15 C15        29.1270  -40.9798  -56.0502 C.3       11 UNK         0.0169 
     16 S16        27.5464  -41.8703  -56.2616 S.3       11 UNK        -0.2669 
     17 C17        27.4918  -42.8905  -54.7498 C.3       11 UNK        -0.0850 
     18 CA         27.8665  -44.3772  -55.0110 C.3       10 UNK         0.0855 
     19 C          28.0037  -45.2002  -53.6974 C.2       10 UNK         0.5543 
     20 N          27.9324  -46.5208  -53.7622 N.am      10 UNK        -0.7343 
     21 O          28.2110  -44.6471  -52.6206 O.2       10 UNK        -0.5027 
     22 N          27.0301  -45.0051  -56.0527 N.am      10 UNK        -0.4495 
     23 C          25.7225  -45.2834  -55.9463 C.2       10 UNK         0.4903 
     24 O          25.0606  -45.1358  -54.9190 O.2       10 UNK        -0.4860 
     25 CA         25.0216  -45.7734  -57.2189 C.3       9 UNK         0.0227 
     26 CB         24.6992  -44.5496  -58.1074 C.3       9 UNK        -0.1964 
     27 N          25.8322  -46.7746  -57.9237 N.am      9 UNK        -0.4231 
     28 C          25.4972  -47.3908  -59.0671 C.2       9 UNK         0.5014 
     29 O          24.4330  -47.2190  -59.6628 O.2       9 UNK        -0.5270 
     30 CA         26.5191  -48.3765  -59.6477 C.3       8 UNK         0.0284 
     31 CB         27.8527  -47.6833  -59.9852 C.3       8 UNK        -0.1977 
     32 N          26.7499  -49.4883  -58.7273 N.am      8 UNK        -0.4342 
     33 C          26.1009  -50.6607  -58.7682 C.2       8 UNK         0.5039 
     34 O          25.2253  -50.9280  -59.5925 O.2       8 UNK        -0.5547 
     35 CA         26.5063  -51.7398  -57.7453 C.3       7 UNK         0.0281 
     36 CB         27.3172  -52.8512  -58.4329 C.3       7 UNK        -0.1963 
     37 N          27.2876  -51.2110  -56.6257 N.am      7 UNK        -0.4444 
     38 C          26.7662  -50.5795  -55.5661 C.2       7 UNK         0.5104 
     39 O          25.5590  -50.4260  -55.3816 O.2       7 UNK        -0.5100 
     40 CA         27.7705  -49.9902  -54.5602 C.3       6 UNK         0.0396 
     41 CB         28.1118  -51.0279  -53.4802 C.3       6 UNK        -0.1801 
     42 N          29.0099  -49.4982  -55.1793 N.am      6 UNK        -0.4747 
     43 C          29.0850  -48.5354  -56.1123 C.2       6 UNK         0.5012 
     44 O          28.0882  -47.9475  -56.5392 O.2       6 UNK        -0.5003 
     45 CA         30.4715  -48.1656  -56.6797 C.3       5 UNK         0.0782 
     46 C46        30.6216  -46.6367  -56.8895 C.3       11 UNK        -0.0868 
     47 S47        32.1154  -46.2444  -57.8586 S.3       11 UNK        -0.2515 
     48 C48        31.6921  -44.6071  -58.5381 C.3       11 UNK         0.0199 
     49 N          31.5637  -48.7053  -55.8647 N.am      5 UNK        -0.4607 
     50 C          32.1312  -49.9055  -56.0256 C.2       4 UNK         0.5031 
     51 O          31.7619  -50.7311  -56.8603 O.2       4 UNK        -0.5119 
     52 CA         33.2865  -50.2477  -55.0716 C.3       4 UNK         0.0263 
     53 CB         34.5779  -49.5332  -55.5031 C.3       4 UNK        -0.1967 
     54 N          32.9792  -49.9098  -53.6793 N.am      4 UNK        -0.4237 
     55 C          32.0889  -50.5627  -52.9177 C.2       3 UNK         0.4908 
     56 O          31.4409  -51.5343  -53.3053 O.2       3 UNK        -0.5102 
     57 CA         31.8790  -50.0420  -51.4873 C.3       3 UNK         0.0241 
     58 CB         32.9262  -50.6374  -50.5324 C.3       3 UNK        -0.1971 
     59 N          31.9338  -48.5804  -51.4336 N.am      3 UNK        -0.4139 
     60 C          30.8965  -47.7846  -51.7360 C.2       2 UNK         0.5016 
     61 O          29.7653  -48.2005  -51.9860 O.2       2 UNK        -0.5319 
     62 CA         31.1533  -46.2678  -51.7805 C.3       2 UNK         0.0286 
     63 CB         30.7186  -45.6062  -50.4638 C.3       2 UNK        -0.1963 
     64 N          32.5392  -45.9023  -52.0693 N.am      2 UNK        -0.4790 
     65 C          33.1829  -46.1739  -53.2137 C.2       1 UNK         0.5024 
     66 O          32.6606  -46.7491  -54.1667 O.2       1 UNK        -0.4888 
     67 H67        35.5465  -46.8438  -48.9974 H         1 UNK         0.0892 
     68 H68        36.5816  -45.6219  -49.7405 H         1 UNK         0.0892 
     69 H69        37.0475  -47.3235  -49.7938 H         1 UNK         0.0892 
     70 H70        35.7570  -44.8963  -51.7067 H         1 UNK         0.3107 
     71 H71        35.1566  -46.6073  -53.8425 H         1 UNK         0.0773 
     72 H72        34.5689  -44.6522  -55.1077 H         1 UNK         0.0680 
     73 H73        35.9914  -44.3146  -54.1774 H         1 UNK         0.0680 
     74 H74        33.9134  -40.9110  -54.5464 H         1 UNK         0.0650 
     75 H75        34.8439  -42.0388  -55.4918 H         1 UNK         0.0650 
     76 H76        33.6744  -43.7748  -56.8917 H         1 UNK         0.1397 
     77 H77        29.5780  -43.0174  -57.8563 H         1 UNK         0.1363 
     78 H78        31.4754  -40.8243  -54.6924 H         1 UNK         0.1355 
     79 H79        29.1606  -40.1708  -56.7809 H         1 UNK         0.0707 
     80 H80        29.1330  -40.5025  -55.0690 H         1 UNK         0.0707 
     81 H81        26.4900  -42.8225  -54.3228 H         1 UNK         0.1034 
     82 H82        28.1607  -42.4506  -54.0078 H         1 UNK         0.1034 
     83 H83        28.8766  -44.3764  -55.4201 H         1 UNK         0.0482 
     84 H84        28.1056  -47.0719  -52.9327 H         1 UNK         0.3460 
     85 H85        27.7633  -46.9740  -54.6485 H         1 UNK         0.3460 
     86 H86        27.4781  -45.1363  -56.9461 H         1 UNK         0.2989 
     87 H87        24.0859  -46.2503  -56.9210 H         1 UNK         0.0559 
     88 H88        24.0152  -44.7989  -58.9175 H         1 UNK         0.0848 
     89 H89        25.6004  -44.1221  -58.5484 H         1 UNK         0.0848 
     90 H90        24.2176  -43.7603  -57.5281 H         1 UNK         0.0848 
     91 H91        26.6808  -47.0737  -57.4475 H         1 UNK         0.3144 
     92 H92        26.1116  -48.7594  -60.5862 H         1 UNK         0.0727 
     93 H93        28.5444  -48.3756  -60.4655 H         1 UNK         0.0790 
     94 H94        28.3487  -47.2776  -59.1050 H         1 UNK         0.0790 
     95 H95        27.6940  -46.8553  -60.6775 H         1 UNK         0.0790 
     96 H96        27.3865  -49.3155  -57.9606 H         1 UNK         0.3215 
     97 H97        25.5861  -52.1812  -57.3555 H         1 UNK         0.0863 
     98 H98        27.5586  -53.6553  -57.7374 H         1 UNK         0.0808 
     99 H99        28.2521  -52.4727  -58.8483 H         1 UNK         0.0808 
    100 H100       26.7527  -53.2955  -59.2541 H         1 UNK         0.0808 
    101 H101       28.2922  -51.3030  -56.6805 H         1 UNK         0.3118 
    102 H102       27.2813  -49.1468  -54.0718 H         1 UNK         0.0546 
    103 H103       28.6434  -51.8851  -53.8949 H         1 UNK         0.0828 
    104 H104       27.2081  -51.4043  -52.9989 H         1 UNK         0.0828 
    105 H105       28.7347  -50.5952  -52.6979 H         1 UNK         0.0828 
    106 H106       29.8716  -49.9226  -54.8646 H         1 UNK         0.3005 
    107 H107       30.5094  -48.6327  -57.6666 H         1 UNK         0.1257 
    108 H108       29.7635  -46.2235  -57.4211 H         1 UNK         0.0775 
    109 H109       30.6717  -46.1136  -55.9327 H         1 UNK         0.0775 
    110 H110       32.4523  -44.3218  -59.2665 H         1 UNK         0.0840 
    111 H111       30.7523  -44.6757  -59.0882 H         1 UNK         0.0840 
    112 H112       31.9502  -48.0654  -55.1723 H         1 UNK         0.2987 
    113 H113       33.4590  -51.3248  -55.1285 H         1 UNK         0.0785 
    114 H114       34.4699  -48.4483  -55.4808 H         1 UNK         0.0798 
    115 H115       34.8522  -49.8099  -56.5220 H         1 UNK         0.0798 
    116 H116       35.4153  -49.8012  -54.8584 H         1 UNK         0.0798 
    117 H117       33.4653  -49.1186  -53.2814 H         1 UNK         0.3079 
    118 H118       30.8938  -50.3738  -51.1518 H         1 UNK         0.0794 
    119 H119       33.9423  -50.3656  -50.8204 H         1 UNK         0.0786 
    120 H120       32.8706  -51.7268  -50.5257 H         1 UNK         0.0786 
    121 H121       32.7665  -50.2986  -49.5086 H         1 UNK         0.0786 
    122 H122       32.8411  -48.1626  -51.2568 H         1 UNK         0.3032 
    123 H123       30.5460  -45.8667  -52.5913 H         1 UNK         0.1094 
    124 H124       30.8033  -44.5207  -50.5195 H         1 UNK         0.0794 
    125 H125       29.6746  -45.8338  -50.2427 H         1 UNK         0.0794 
    126 H126       31.3160  -45.9515  -49.6192 H         1 UNK         0.0794 
    127 H127       33.0492  -45.4236  -51.3411 H         1 UNK         0.3016 
@<TRIPOS>BOND
     1    1    2 1    
     2    1   67 1    
     3    1   68 1    
     4    1   69 1    
     5    2    3 2    
     6    2    4 am   BACKBONE|DICT|INTERRES
     7    4    5 1    
     8    4   70 1    
     9    5    6 1    
    10    5   65 1    
    11    5   71 1    
    12    6    7 1    
    13    6   72 1    
    14    6   73 1    
    15    7    8 1    
    16    8    9 1    
    17    8   74 1    
    18    8   75 1    
    19    9   10 ar   
    20    9   14 ar   
    21   10   11 ar   
    22   10   76 1    
    23   11   12 ar   
    24   11   48 1    
    25   12   13 ar   
    26   12   77 1    
    27   13   14 ar   
    28   13   15 1    
    29   14   78 1    
    30   15   16 1    
    31   15   79 1    
    32   15   80 1    
    33   16   17 1    
    34   17   18 1    
    35   17   81 1    
    36   17   82 1    
    37   18   19 1    
    38   18   22 1    
    39   18   83 1    
    40   19   20 am   BACKBONE|DICT|INTERRES
    41   19   21 2    
    42   20   84 1    
    43   20   85 1    
    44   22   23 am   BACKBONE|DICT|INTERRES
    45   22   86 1    
    46   23   24 2    
    47   23   25 1    
    48   25   26 1    
    49   25   27 1    
    50   25   87 1    
    51   26   88 1    
    52   26   89 1    
    53   26   90 1    
    54   27   28 am   BACKBONE|DICT|INTERRES
    55   27   91 1    
    56   28   29 2    
    57   28   30 1    
    58   30   31 1    
    59   30   32 1    
    60   30   92 1    
    61   31   93 1    
    62   31   94 1    
    63   31   95 1    
    64   32   33 am   BACKBONE|DICT|INTERRES
    65   32   96 1    
    66   33   34 2    
    67   33   35 1    
    68   35   36 1    
    69   35   37 1    
    70   35   97 1    
    71   36   98 1    
    72   36   99 1    
    73   36  100 1    
    74   37   38 am   BACKBONE|DICT|INTERRES
    75   37  101 1    
    76   38   39 2    
    77   38   40 1    
    78   40   41 1    
    79   40   42 1    
    80   40  102 1    
    81   41  103 1    
    82   41  104 1    
    83   41  105 1    
    84   42   43 am   BACKBONE|DICT|INTERRES
    85   42  106 1    
    86   43   44 2    
    87   43   45 1    
    88   45   46 1    
    89   45   49 1    
    90   45  107 1    
    91   46   47 1    
    92   46  108 1    
    93   46  109 1    
    94   47   48 1    
    95   48  110 1    
    96   48  111 1    
    97   49   50 am   BACKBONE|DICT|INTERRES
    98   49  112 1    
    99   50   51 2    
   100   50   52 1    
   101   52   53 1    
   102   52   54 1    
   103   52  113 1    
   104   53  114 1    
   105   53  115 1    
   106   53  116 1    
   107   54   55 am   BACKBONE|DICT|INTERRES
   108   54  117 1    
   109   55   56 2    
   110   55   57 1    
   111   57   58 1    
   112   57   59 1    
   113   57  118 1    
   114   58  119 1    
   115   58  120 1    
   116   58  121 1    
   117   59   60 am   BACKBONE|DICT|INTERRES
   118   59  122 1    
   119   60   61 2    
   120   60   62 1    
   121   62   63 1    
   122   62   64 1    
   123   62  123 1    
   124   63  124 1    
   125   63  125 1    
   126   63  126 1    
   127   64   65 am   BACKBONE|DICT|INTERRES
   128   64  127 1    
   129   65   66 2    
@<TRIPOS>SUBSTRUCTURE
     1 UNK         1 GROUP             0       ****    0 ROOT    
