@<TRIPOS>MOLECULE
3R134
127   129    1
SMALL
USER_CHARGES


@<TRIPOS>ATOM
      1 CA         38.2950  -48.0522  -57.7015 C.3       0 UNK        -0.1968 
      2 C          37.2684  -47.2544  -56.9108 C.2       0 UNK         0.4852 
      3 O          37.4956  -46.0755  -56.6363 O.2       0 UNK        -0.5359 
      4 N          36.1472  -47.8930  -56.5421 N.am      1 UNK        -0.4300 
      5 CA         35.0289  -47.3177  -55.7791 C.3       1 UNK         0.0863 
      6 C6         34.3088  -46.1740  -56.5495 C.3       11 UNK        -0.0953 
      7 S7         32.5453  -46.0219  -56.1070 S.3       11 UNK        -0.2369 
      8 C8         32.4989  -44.3114  -55.4910 C.3       11 UNK         0.0226 
      9 C9         31.2774  -44.0715  -54.6208 C.ar      11 UNK        -0.0699 
     10 C10        31.3092  -44.4375  -53.2720 C.ar      11 UNK        -0.0804 
     11 C11        30.1988  -44.2191  -52.4532 C.ar      11 UNK        -0.0871 
     12 C12        29.0607  -43.6086  -52.9875 C.ar      11 UNK        -0.1008 
     13 C13        29.0113  -43.2501  -54.3373 C.ar      11 UNK        -0.0735 
     14 C14        30.1245  -43.4828  -55.1517 C.ar      11 UNK        -0.0945 
     15 C15        27.7460  -42.6234  -54.9036 C.3       11 UNK         0.0169 
     16 S16        26.4160  -43.8578  -55.0197 S.3       11 UNK        -0.2669 
     17 C17        25.0043  -42.8454  -55.5897 C.3       11 UNK        -0.0850 
     18 CA         24.7166  -42.9644  -57.1119 C.3       10 UNK         0.0855 
     19 C          25.6386  -42.0364  -57.9589 C.2       10 UNK         0.5543 
     20 N          26.3975  -42.5320  -58.9287 N.am      10 UNK        -0.7343 
     21 O          25.6554  -40.8284  -57.7356 O.2       10 UNK        -0.5027 
     22 N          24.6847  -44.3710  -57.5350 N.am      10 UNK        -0.4495 
     23 C          24.0633  -44.8584  -58.6140 C.2       10 UNK         0.4903 
     24 O          23.3188  -44.1930  -59.3357 O.2       10 UNK        -0.4860 
     25 CA         24.3483  -46.3411  -58.9388 C.3       9 UNK         0.0227 
     26 CB         23.9784  -46.7165  -60.3891 C.3       9 UNK        -0.1964 
     27 N          25.7322  -46.7424  -58.6387 N.am      9 UNK        -0.4231 
     28 C          26.8568  -46.1863  -59.1245 C.2       9 UNK         0.5014 
     29 O          26.8627  -45.2477  -59.9218 O.2       9 UNK        -0.5270 
     30 CA         28.2079  -46.7225  -58.6176 C.3       8 UNK         0.0284 
     31 CB         28.8824  -45.6848  -57.7060 C.3       8 UNK        -0.1977 
     32 N          28.0934  -47.9948  -57.9018 N.am      8 UNK        -0.4342 
     33 C          27.9276  -49.1826  -58.5035 C.2       8 UNK         0.5039 
     34 O          27.9283  -49.3300  -59.7264 O.2       8 UNK        -0.5547 
     35 CA         27.6999  -50.4151  -57.6089 C.3       7 UNK         0.0281 
     36 CB         28.9743  -51.2723  -57.5394 C.3       7 UNK        -0.1963 
     37 N          27.2524  -50.0843  -56.2520 N.am      7 UNK        -0.4444 
     38 C          26.0537  -49.5558  -55.9582 C.2       7 UNK         0.5104 
     39 O          25.2028  -49.2918  -56.8088 O.2       7 UNK        -0.5100 
     40 CA         25.7609  -49.2175  -54.4830 C.3       6 UNK         0.0396 
     41 CB         24.9901  -50.3671  -53.8161 C.3       6 UNK        -0.1801 
     42 N          26.9479  -48.9026  -53.6811 N.am      6 UNK        -0.4747 
     43 C          27.8225  -47.9203  -53.9470 C.2       6 UNK         0.5012 
     44 O          27.7267  -47.1732  -54.9198 O.2       6 UNK        -0.5003 
     45 CA         29.0389  -47.7939  -53.0065 C.3       5 UNK         0.0782 
     46 C46        28.6793  -46.9259  -51.7752 C.3       11 UNK        -0.0868 
     47 S47        30.1687  -46.4729  -50.8179 S.3       11 UNK        -0.2515 
     48 C48        30.2174  -44.6582  -50.9959 C.3       11 UNK         0.0199 
     49 N          29.6125  -49.0813  -52.5821 N.am      5 UNK        -0.4607 
     50 C          29.9142  -50.1407  -53.3456 C.2       4 UNK         0.5031 
     51 O          29.6723  -50.2167  -54.5501 O.2       4 UNK        -0.5119 
     52 CA         30.5955  -51.3123  -52.6134 C.3       4 UNK         0.0263 
     53 CB         30.9702  -52.4770  -53.5562 C.3       4 UNK        -0.1967 
     54 N          31.7550  -50.8745  -51.8217 N.am      4 UNK        -0.4237 
     55 C          32.8746  -50.2997  -52.2867 C.2       3 UNK         0.4908 
     56 O          33.1019  -50.0784  -53.4807 O.2       3 UNK        -0.5102 
     57 CA         33.9290  -49.9199  -51.2364 C.3       3 UNK         0.0241 
     58 CB         34.5298  -51.1639  -50.5530 C.3       3 UNK        -0.1971 
     59 N          34.9803  -49.1750  -51.9168 N.am      3 UNK        -0.4139 
     60 C          35.8282  -48.2910  -51.3827 C.2       2 UNK         0.5016 
     61 O          35.8677  -48.0153  -50.1829 O.2       2 UNK        -0.5319 
     62 CA         36.8051  -47.5989  -52.3539 C.3       2 UNK         0.0286 
     63 CB         38.2170  -48.1911  -52.2107 C.3       2 UNK        -0.1963 
     64 N          36.3859  -47.7030  -53.7575 N.am      2 UNK        -0.4790 
     65 C          35.4157  -46.9645  -54.3190 C.2       1 UNK         0.5024 
     66 O          34.8318  -46.0648  -53.7138 O.2       1 UNK        -0.4888 
     67 H67        38.4697  -47.5826  -58.6692 H         1 UNK         0.0892 
     68 H68        39.2415  -48.0838  -57.1624 H         1 UNK         0.0892 
     69 H69        37.9703  -49.0777  -57.8768 H         1 UNK         0.0892 
     70 H70        36.0292  -48.8618  -56.8071 H         1 UNK         0.3107 
     71 H71        34.3184  -48.1410  -55.6847 H         1 UNK         0.0773 
     72 H72        34.8296  -45.2239  -56.4180 H         1 UNK         0.0680 
     73 H73        34.3361  -46.3754  -57.6214 H         1 UNK         0.0680 
     74 H74        32.5113  -43.6239  -56.3380 H         1 UNK         0.0650 
     75 H75        33.3971  -44.1003  -54.9091 H         1 UNK         0.0650 
     76 H76        32.1941  -44.9096  -52.8654 H         1 UNK         0.1397 
     77 H77        28.1953  -43.4372  -52.3618 H         1 UNK         0.1363 
     78 H78        30.0936  -43.2104  -56.1977 H         1 UNK         0.1355 
     79 H79        27.4289  -41.8010  -54.2606 H         1 UNK         0.0707 
     80 H80        27.9327  -42.1977  -55.8907 H         1 UNK         0.0707 
     81 H81        24.1265  -43.1892  -55.0407 H         1 UNK         0.1034 
     82 H82        25.1366  -41.8054  -55.2851 H         1 UNK         0.1034 
     83 H83        23.7117  -42.5675  -57.2681 H         1 UNK         0.0482 
     84 H84        26.3949  -43.5212  -59.1557 H         1 UNK         0.3460 
     85 H85        26.9762  -41.9040  -59.4624 H         1 UNK         0.3460 
     86 H86        25.2877  -44.9850  -57.0062 H         1 UNK         0.2989 
     87 H87        23.7119  -46.9261  -58.2733 H         1 UNK         0.0559 
     88 H88        22.9194  -46.5404  -60.5819 H         1 UNK         0.0848 
     89 H89        24.1712  -47.7708  -60.5871 H         1 UNK         0.0848 
     90 H90        24.5428  -46.1301  -61.1150 H         1 UNK         0.0848 
     91 H91        25.8260  -47.5161  -57.9905 H         1 UNK         0.3144 
     92 H92        28.8484  -46.8708  -59.4896 H         1 UNK         0.0727 
     93 H93        28.2669  -45.4440  -56.8393 H         1 UNK         0.0790 
     94 H94        29.0641  -44.7519  -58.2412 H         1 UNK         0.0790 
     95 H95        29.8448  -46.0418  -57.3419 H         1 UNK         0.0790 
     96 H96        28.0702  -47.9443  -56.8882 H         1 UNK         0.3215 
     97 H97        26.9158  -51.0136  -58.0778 H         1 UNK         0.0863 
     98 H98        28.8313  -52.1524  -56.9122 H         1 UNK         0.0808 
     99 H99        29.8183  -50.7084  -57.1405 H         1 UNK         0.0808 
    100 H100       29.2608  -51.6234  -58.5316 H         1 UNK         0.0808 
    101 H101       27.9359  -50.2066  -55.5090 H         1 UNK         0.3118 
    102 H102       25.1231  -48.3313  -54.4768 H         1 UNK         0.0546 
    103 H103       25.5894  -51.2768  -53.7610 H         1 UNK         0.0828 
    104 H104       24.0852  -50.6071  -54.3765 H         1 UNK         0.0828 
    105 H105       24.6805  -50.1051  -52.8043 H         1 UNK         0.0828 
    106 H106       27.1213  -49.4869  -52.8760 H         1 UNK         0.3005 
    107 H107       29.8116  -47.2760  -53.5802 H         1 UNK         0.1257 
    108 H108       27.9980  -47.4639  -51.1135 H         1 UNK         0.0775 
    109 H109       28.1439  -46.0234  -52.0725 H         1 UNK         0.0775 
    110 H110       29.3771  -44.2260  -50.4500 H         1 UNK         0.0840 
    111 H111       31.1201  -44.2786  -50.5151 H         1 UNK         0.0840 
    112 H112       29.8695  -49.1226  -51.6068 H         1 UNK         0.2987 
    113 H113       29.8614  -51.6949  -51.9025 H         1 UNK         0.0785 
    114 H114       30.0850  -52.8736  -54.0551 H         1 UNK         0.0798 
    115 H115       31.4294  -53.2996  -53.0083 H         1 UNK         0.0798 
    116 H116       31.6650  -52.1636  -54.3361 H         1 UNK         0.0798 
    117 H117       31.6739  -51.0109  -50.8232 H         1 UNK         0.3079 
    118 H118       33.4563  -49.2752  -50.4923 H         1 UNK         0.0794 
    119 H119       35.2957  -50.8873  -49.8281 H         1 UNK         0.0786 
    120 H120       34.9864  -51.8386  -51.2784 H         1 UNK         0.0786 
    121 H121       33.7694  -51.7291  -50.0133 H         1 UNK         0.0786 
    122 H122       34.9671  -49.2933  -52.9224 H         1 UNK         0.3032 
    123 H123       36.8456  -46.5430  -52.0760 H         1 UNK         0.1094 
    124 H124       38.2405  -49.2499  -52.4714 H         1 UNK         0.0794 
    125 H125       38.9321  -47.6707  -52.8482 H         1 UNK         0.0794 
    126 H126       38.5753  -48.1007  -51.1842 H         1 UNK         0.0794 
    127 H127       36.8383  -48.4098  -54.3195 H         1 UNK         0.3016 
@<TRIPOS>BOND
     1    1    2 1    
     2    1   67 1    
     3    1   68 1    
     4    1   69 1    
     5    2    3 2    
     6    2    4 am   BACKBONE|DICT|INTERRES
     7    4    5 1    
     8    4   70 1    
     9    5    6 1    
    10    5   65 1    
    11    5   71 1    
    12    6    7 1    
    13    6   72 1    
    14    6   73 1    
    15    7    8 1    
    16    8    9 1    
    17    8   74 1    
    18    8   75 1    
    19    9   10 ar   
    20    9   14 ar   
    21   10   11 ar   
    22   10   76 1    
    23   11   12 ar   
    24   11   48 1    
    25   12   13 ar   
    26   12   77 1    
    27   13   14 ar   
    28   13   15 1    
    29   14   78 1    
    30   15   16 1    
    31   15   79 1    
    32   15   80 1    
    33   16   17 1    
    34   17   18 1    
    35   17   81 1    
    36   17   82 1    
    37   18   19 1    
    38   18   22 1    
    39   18   83 1    
    40   19   20 am   BACKBONE|DICT|INTERRES
    41   19   21 2    
    42   20   84 1    
    43   20   85 1    
    44   22   23 am   BACKBONE|DICT|INTERRES
    45   22   86 1    
    46   23   24 2    
    47   23   25 1    
    48   25   26 1    
    49   25   27 1    
    50   25   87 1    
    51   26   88 1    
    52   26   89 1    
    53   26   90 1    
    54   27   28 am   BACKBONE|DICT|INTERRES
    55   27   91 1    
    56   28   29 2    
    57   28   30 1    
    58   30   31 1    
    59   30   32 1    
    60   30   92 1    
    61   31   93 1    
    62   31   94 1    
    63   31   95 1    
    64   32   33 am   BACKBONE|DICT|INTERRES
    65   32   96 1    
    66   33   34 2    
    67   33   35 1    
    68   35   36 1    
    69   35   37 1    
    70   35   97 1    
    71   36   98 1    
    72   36   99 1    
    73   36  100 1    
    74   37   38 am   BACKBONE|DICT|INTERRES
    75   37  101 1    
    76   38   39 2    
    77   38   40 1    
    78   40   41 1    
    79   40   42 1    
    80   40  102 1    
    81   41  103 1    
    82   41  104 1    
    83   41  105 1    
    84   42   43 am   BACKBONE|DICT|INTERRES
    85   42  106 1    
    86   43   44 2    
    87   43   45 1    
    88   45   46 1    
    89   45   49 1    
    90   45  107 1    
    91   46   47 1    
    92   46  108 1    
    93   46  109 1    
    94   47   48 1    
    95   48  110 1    
    96   48  111 1    
    97   49   50 am   BACKBONE|DICT|INTERRES
    98   49  112 1    
    99   50   51 2    
   100   50   52 1    
   101   52   53 1    
   102   52   54 1    
   103   52  113 1    
   104   53  114 1    
   105   53  115 1    
   106   53  116 1    
   107   54   55 am   BACKBONE|DICT|INTERRES
   108   54  117 1    
   109   55   56 2    
   110   55   57 1    
   111   57   58 1    
   112   57   59 1    
   113   57  118 1    
   114   58  119 1    
   115   58  120 1    
   116   58  121 1    
   117   59   60 am   BACKBONE|DICT|INTERRES
   118   59  122 1    
   119   60   61 2    
   120   60   62 1    
   121   62   63 1    
   122   62   64 1    
   123   62  123 1    
   124   63  124 1    
   125   63  125 1    
   126   63  126 1    
   127   64   65 am   BACKBONE|DICT|INTERRES
   128   64  127 1    
   129   65   66 2    
@<TRIPOS>SUBSTRUCTURE
     1 UNK         1 GROUP             0       ****    0 ROOT    
