@<TRIPOS>MOLECULE
3R134
127   129    1
SMALL
USER_CHARGES


@<TRIPOS>ATOM
      1 CA         38.4393  -44.2078  -50.9775 C.3       0 UNK        -0.1968 
      2 C          37.7755  -45.1110  -52.0066 C.2       0 UNK         0.4852 
      3 O          38.3239  -46.1631  -52.3377 O.2       0 UNK        -0.5359 
      4 N          36.6029  -44.7055  -52.5152 N.am      1 UNK        -0.4300 
      5 CA         35.8023  -45.4573  -53.4918 C.3       1 UNK         0.0863 
      6 C6         34.7290  -44.5501  -54.1477 C.3       11 UNK        -0.0953 
      7 S7         34.4426  -44.9457  -55.9047 S.3       11 UNK        -0.2369 
      8 C8         32.8149  -45.7520  -55.8540 C.3       11 UNK         0.0226 
      9 C9         31.6945  -44.7829  -55.5116 C.ar      11 UNK        -0.0699 
     10 C10        31.1315  -44.7989  -54.2349 C.ar      11 UNK        -0.0804 
     11 C11        30.0456  -43.9774  -53.9257 C.ar      11 UNK        -0.0871 
     12 C12        29.5620  -43.0857  -54.8872 C.ar      11 UNK        -0.1008 
     13 C13        30.1355  -43.0386  -56.1617 C.ar      11 UNK        -0.0735 
     14 C14        31.1937  -43.9000  -56.4729 C.ar      11 UNK        -0.0945 
     15 C15        29.6235  -42.0532  -57.2016 C.3       11 UNK         0.0169 
     16 S16        28.2421  -42.7416  -58.1636 S.3       11 UNK        -0.2669 
     17 C17        26.7950  -42.1428  -57.2188 C.3       11 UNK        -0.0850 
     18 CA         25.4652  -42.8419  -57.6041 C.3       10 UNK         0.0855 
     19 C          25.0168  -42.4887  -59.0553 C.2       10 UNK         0.5543 
     20 N          25.0183  -43.4225  -60.0009 N.am      10 UNK        -0.7343 
     21 O          24.6504  -41.3462  -59.3201 O.2       10 UNK        -0.5027 
     22 N          25.5139  -44.2792  -57.3047 N.am      10 UNK        -0.4495 
     23 C          24.4494  -45.0901  -57.2490 C.2       10 UNK         0.4903 
     24 O          23.2862  -44.6846  -57.2780 O.2       10 UNK        -0.4860 
     25 CA         24.7228  -46.6060  -57.1475 C.3       9 UNK         0.0227 
     26 CB         23.6621  -47.4416  -57.8937 C.3       9 UNK        -0.1964 
     27 N          26.0729  -47.0155  -57.5610 N.am      9 UNK        -0.4231 
     28 C          26.6572  -46.8305  -58.7564 C.2       9 UNK         0.5014 
     29 O          26.1351  -46.2222  -59.6925 O.2       9 UNK        -0.5270 
     30 CA         28.0722  -47.4055  -58.9310 C.3       8 UNK         0.0284 
     31 CB         29.1269  -46.4389  -58.3667 C.3       8 UNK        -0.1977 
     32 N          28.2387  -48.7192  -58.3081 N.am      8 UNK        -0.4342 
     33 C          27.6583  -49.8508  -58.7319 C.2       8 UNK         0.5039 
     34 O          26.9063  -49.9173  -59.7049 O.2       8 UNK        -0.5547 
     35 CA         27.9754  -51.1263  -57.9374 C.3       7 UNK         0.0281 
     36 CB         29.3684  -51.6686  -58.3007 C.3       7 UNK        -0.1963 
     37 N          27.8995  -50.8891  -56.4961 N.am      7 UNK        -0.4444 
     38 C          26.7679  -50.9340  -55.7802 C.2       7 UNK         0.5104 
     39 O          25.6711  -51.2404  -56.2483 O.2       7 UNK        -0.5100 
     40 CA         26.8717  -50.5788  -54.2852 C.3       6 UNK         0.0396 
     41 CB         27.0648  -51.8502  -53.4443 C.3       6 UNK        -0.1801 
     42 N          27.9490  -49.6326  -53.9829 N.am      6 UNK        -0.4747 
     43 C          27.9545  -48.3456  -54.3655 C.2       6 UNK         0.5012 
     44 O          27.0500  -47.8259  -55.0177 O.2       6 UNK        -0.5003 
     45 CA         29.2098  -47.5178  -54.0186 C.3       5 UNK         0.0782 
     46 C46        29.0912  -46.9011  -52.5981 C.3       11 UNK        -0.0868 
     47 S47        28.0915  -45.3731  -52.5613 S.3       11 UNK        -0.2515 
     48 C48        29.3770  -44.0797  -52.5641 C.3       11 UNK         0.0199 
     49 N          30.4547  -48.2845  -54.1758 N.am      5 UNK        -0.4607 
     50 C          30.8237  -48.9462  -55.2857 C.2       4 UNK         0.5031 
     51 O          30.2157  -48.8614  -56.3510 O.2       4 UNK        -0.5119 
     52 CA         32.0065  -49.9315  -55.1988 C.3       4 UNK         0.0263 
     53 CB         33.1976  -49.4684  -56.0522 C.3       4 UNK        -0.1967 
     54 N          32.4513  -50.2177  -53.8328 N.am      4 UNK        -0.4237 
     55 C          31.7047  -50.8275  -52.8995 C.2       3 UNK         0.4908 
     56 O          30.5819  -51.2846  -53.1208 O.2       3 UNK        -0.5102 
     57 CA         32.2652  -50.8947  -51.4679 C.3       3 UNK         0.0241 
     58 CB         32.7890  -52.3085  -51.1677 C.3       3 UNK        -0.1971 
     59 N          33.3147  -49.9175  -51.1501 N.am      3 UNK        -0.4139 
     60 C          33.2240  -48.5811  -51.2349 C.2       2 UNK         0.5016 
     61 O          32.2428  -47.9903  -51.6915 O.2       2 UNK        -0.5319 
     62 CA         34.4216  -47.7642  -50.7043 C.3       2 UNK         0.0286 
     63 CB         35.6611  -48.6174  -50.3451 C.3       2 UNK        -0.1963 
     64 N          34.8230  -46.6629  -51.5881 N.am      2 UNK        -0.4790 
     65 C          35.1952  -46.7412  -52.8767 C.2       1 UNK         0.5024 
     66 O          35.1309  -47.7704  -53.5507 O.2       1 UNK        -0.4888 
     67 H67        37.8545  -43.3085  -50.7845 H         1 UNK         0.0892 
     68 H68        38.5621  -44.7408  -50.0350 H         1 UNK         0.0892 
     69 H69        39.4250  -43.9019  -51.3272 H         1 UNK         0.0892 
     70 H70        36.2138  -43.8242  -52.2110 H         1 UNK         0.3107 
     71 H71        36.4991  -45.7812  -54.2685 H         1 UNK         0.0773 
     72 H72        35.0604  -43.5105  -54.1393 H         1 UNK         0.0680 
     73 H73        33.7970  -44.5543  -53.5823 H         1 UNK         0.0680 
     74 H74        32.8464  -46.5627  -55.1262 H         1 UNK         0.0650 
     75 H75        32.6131  -46.2133  -56.8219 H         1 UNK         0.0650 
     76 H76        31.5162  -45.4846  -53.4928 H         1 UNK         0.1397 
     77 H77        28.7336  -42.4354  -54.6443 H         1 UNK         0.1363 
     78 H78        31.6300  -43.8832  -57.4623 H         1 UNK         0.1355 
     79 H79        30.4292  -41.7938  -57.8901 H         1 UNK         0.0707 
     80 H80        29.3225  -41.1183  -56.7264 H         1 UNK         0.0707 
     81 H81        26.9792  -42.2909  -56.1548 H         1 UNK         0.1034 
     82 H82        26.7102  -41.0630  -57.3553 H         1 UNK         0.1034 
     83 H83        24.6950  -42.4210  -56.9549 H         1 UNK         0.0482 
     84 H84        24.7223  -43.1823  -60.9331 H         1 UNK         0.3460 
     85 H85        25.3472  -44.3615  -59.8007 H         1 UNK         0.3460 
     86 H86        26.4343  -44.6925  -57.2928 H         1 UNK         0.2989 
     87 H87        24.6486  -46.8513  -56.0873 H         1 UNK         0.0559 
     88 H88        23.6390  -47.2058  -58.9581 H         1 UNK         0.0848 
     89 H89        22.6630  -47.2568  -57.4973 H         1 UNK         0.0848 
     90 H90        23.8563  -48.5096  -57.7912 H         1 UNK         0.0848 
     91 H91        26.6073  -47.4757  -56.8271 H         1 UNK         0.3144 
     92 H92        28.2546  -47.5198  -60.0016 H         1 UNK         0.0727 
     93 H93        28.9803  -46.2480  -57.3027 H         1 UNK         0.0790 
     94 H94        29.0866  -45.4790  -58.8814 H         1 UNK         0.0790 
     95 H95        30.1362  -46.8300  -58.4971 H         1 UNK         0.0790 
     96 H96        28.8967  -48.7715  -57.5304 H         1 UNK         0.3215 
     97 H97        27.2395  -51.8851  -58.2137 H         1 UNK         0.0863 
     98 H98        29.5804  -52.5992  -57.7740 H         1 UNK         0.0808 
     99 H99        30.1613  -50.9598  -58.0602 H         1 UNK         0.0808 
    100 H100       29.4353  -51.8794  -59.3688 H         1 UNK         0.0808 
    101 H101       28.7446  -50.5783  -56.0377 H         1 UNK         0.3118 
    102 H102       25.9268  -50.1170  -53.9908 H         1 UNK         0.0546 
    103 H103       26.2599  -52.5641  -53.6249 H         1 UNK         0.0828 
    104 H104       27.0638  -51.6254  -52.3777 H         1 UNK         0.0828 
    105 H105       28.0045  -52.3515  -53.6801 H         1 UNK         0.0828 
    106 H106       28.7564  -50.0026  -53.4941 H         1 UNK         0.3005 
    107 H107       29.2564  -46.7126  -54.7541 H         1 UNK         0.1257 
    108 H108       30.0750  -46.6640  -52.1958 H         1 UNK         0.0775 
    109 H109       28.6685  -47.6151  -51.8884 H         1 UNK         0.0775 
    110 H110       28.9170  -43.1256  -52.3021 H         1 UNK         0.0840 
    111 H111       30.1153  -44.2830  -51.7867 H         1 UNK         0.0840 
    112 H112       31.0306  -48.3747  -53.3448 H         1 UNK         0.2987 
    113 H113       31.6461  -50.8704  -55.6247 H         1 UNK         0.0785 
    114 H114       33.6991  -48.6037  -55.6220 H         1 UNK         0.0798 
    115 H115       32.8802  -49.1965  -57.0600 H         1 UNK         0.0798 
    116 H116       33.9389  -50.2613  -56.1525 H         1 UNK         0.0798 
    117 H117       33.3476  -49.8386  -53.5582 H         1 UNK         0.3079 
    118 H118       31.4286  -50.6920  -50.7961 H         1 UNK         0.0794 
    119 H119       33.6544  -52.5572  -51.7834 H         1 UNK         0.0786 
    120 H120       32.0227  -53.0602  -51.3642 H         1 UNK         0.0786 
    121 H121       33.0782  -52.4126  -50.1217 H         1 UNK         0.0786 
    122 H122       34.1722  -50.2986  -50.7771 H         1 UNK         0.3032 
    123 H123       34.0668  -47.2995  -49.7828 H         1 UNK         0.1094 
    124 H124       36.4676  -47.9901  -49.9642 H         1 UNK         0.0794 
    125 H125       35.4378  -49.3447  -49.5635 H         1 UNK         0.0794 
    126 H126       36.0512  -49.1569  -51.2094 H         1 UNK         0.0794 
    127 H127       34.8858  -45.7575  -51.1446 H         1 UNK         0.3016 
@<TRIPOS>BOND
     1    1    2 1    
     2    1   67 1    
     3    1   68 1    
     4    1   69 1    
     5    2    3 2    
     6    2    4 am   BACKBONE|DICT|INTERRES
     7    4    5 1    
     8    4   70 1    
     9    5    6 1    
    10    5   65 1    
    11    5   71 1    
    12    6    7 1    
    13    6   72 1    
    14    6   73 1    
    15    7    8 1    
    16    8    9 1    
    17    8   74 1    
    18    8   75 1    
    19    9   10 ar   
    20    9   14 ar   
    21   10   11 ar   
    22   10   76 1    
    23   11   12 ar   
    24   11   48 1    
    25   12   13 ar   
    26   12   77 1    
    27   13   14 ar   
    28   13   15 1    
    29   14   78 1    
    30   15   16 1    
    31   15   79 1    
    32   15   80 1    
    33   16   17 1    
    34   17   18 1    
    35   17   81 1    
    36   17   82 1    
    37   18   19 1    
    38   18   22 1    
    39   18   83 1    
    40   19   20 am   BACKBONE|DICT|INTERRES
    41   19   21 2    
    42   20   84 1    
    43   20   85 1    
    44   22   23 am   BACKBONE|DICT|INTERRES
    45   22   86 1    
    46   23   24 2    
    47   23   25 1    
    48   25   26 1    
    49   25   27 1    
    50   25   87 1    
    51   26   88 1    
    52   26   89 1    
    53   26   90 1    
    54   27   28 am   BACKBONE|DICT|INTERRES
    55   27   91 1    
    56   28   29 2    
    57   28   30 1    
    58   30   31 1    
    59   30   32 1    
    60   30   92 1    
    61   31   93 1    
    62   31   94 1    
    63   31   95 1    
    64   32   33 am   BACKBONE|DICT|INTERRES
    65   32   96 1    
    66   33   34 2    
    67   33   35 1    
    68   35   36 1    
    69   35   37 1    
    70   35   97 1    
    71   36   98 1    
    72   36   99 1    
    73   36  100 1    
    74   37   38 am   BACKBONE|DICT|INTERRES
    75   37  101 1    
    76   38   39 2    
    77   38   40 1    
    78   40   41 1    
    79   40   42 1    
    80   40  102 1    
    81   41  103 1    
    82   41  104 1    
    83   41  105 1    
    84   42   43 am   BACKBONE|DICT|INTERRES
    85   42  106 1    
    86   43   44 2    
    87   43   45 1    
    88   45   46 1    
    89   45   49 1    
    90   45  107 1    
    91   46   47 1    
    92   46  108 1    
    93   46  109 1    
    94   47   48 1    
    95   48  110 1    
    96   48  111 1    
    97   49   50 am   BACKBONE|DICT|INTERRES
    98   49  112 1    
    99   50   51 2    
   100   50   52 1    
   101   52   53 1    
   102   52   54 1    
   103   52  113 1    
   104   53  114 1    
   105   53  115 1    
   106   53  116 1    
   107   54   55 am   BACKBONE|DICT|INTERRES
   108   54  117 1    
   109   55   56 2    
   110   55   57 1    
   111   57   58 1    
   112   57   59 1    
   113   57  118 1    
   114   58  119 1    
   115   58  120 1    
   116   58  121 1    
   117   59   60 am   BACKBONE|DICT|INTERRES
   118   59  122 1    
   119   60   61 2    
   120   60   62 1    
   121   62   63 1    
   122   62   64 1    
   123   62  123 1    
   124   63  124 1    
   125   63  125 1    
   126   63  126 1    
   127   64   65 am   BACKBONE|DICT|INTERRES
   128   64  127 1    
   129   65   66 2    
@<TRIPOS>SUBSTRUCTURE
     1 UNK         1 GROUP             0       ****    0 ROOT    
