@<TRIPOS>MOLECULE
3R134
127   129    1
SMALL
USER_CHARGES


@<TRIPOS>ATOM
      1 CA         37.7304  -46.7280  -54.6367 C.3       0 UNK        -0.1968 
      2 C          36.2249  -46.5475  -54.5117 C.2       0 UNK         0.4852 
      3 O          35.4713  -47.2533  -55.1847 O.2       0 UNK        -0.5359 
      4 N          35.7889  -45.6113  -53.6541 N.am      1 UNK        -0.4300 
      5 CA         34.3833  -45.2806  -53.3882 C.3       1 UNK         0.0863 
      6 C6         34.2320  -44.1335  -52.3555 C.3       11 UNK        -0.0953 
      7 S7         34.4509  -42.4999  -53.1259 S.3       11 UNK        -0.2369 
      8 C8         32.8034  -41.7538  -52.8606 C.3       11 UNK         0.0226 
      9 C9         31.6685  -42.5100  -53.5480 C.ar      11 UNK        -0.0699 
     10 C10        30.5356  -42.9028  -52.8215 C.ar      11 UNK        -0.0804 
     11 C11        29.4717  -43.5550  -53.4569 C.ar      11 UNK        -0.0871 
     12 C12        29.5536  -43.8194  -54.8272 C.ar      11 UNK        -0.1008 
     13 C13        30.6736  -43.4274  -55.5636 C.ar      11 UNK        -0.0735 
     14 C14        31.7274  -42.7740  -54.9206 C.ar      11 UNK        -0.0945 
     15 C15        30.7278  -43.6950  -57.0576 C.3       11 UNK         0.0169 
     16 S16        30.1437  -42.2552  -58.0024 S.3       11 UNK        -0.2669 
     17 C17        29.6956  -43.0415  -59.5867 C.3       11 UNK        -0.0850 
     18 CA         28.1512  -43.2252  -59.7334 C.3       10 UNK         0.0855 
     19 C          27.5197  -42.3466  -60.8528 C.2       10 UNK         0.5543 
     20 N          26.5460  -42.8384  -61.6108 N.am      10 UNK        -0.7343 
     21 O          27.9022  -41.1928  -61.0308 O.2       10 UNK        -0.5027 
     22 N          27.7813  -44.6472  -59.8288 N.am      10 UNK        -0.4495 
     23 C          27.4912  -45.4357  -58.7888 C.2       10 UNK         0.4903 
     24 O          27.4855  -45.0549  -57.6158 O.2       10 UNK        -0.4860 
     25 CA         27.1768  -46.9024  -59.1282 C.3       9 UNK         0.0227 
     26 CB         28.4382  -47.6399  -59.6113 C.3       9 UNK        -0.1964 
     27 N          26.6589  -47.5980  -57.9530 N.am      9 UNK        -0.4231 
     28 C          25.3712  -47.6729  -57.5962 C.2       9 UNK         0.5014 
     29 O          24.4445  -47.2324  -58.2804 O.2       9 UNK        -0.5270 
     30 CA         25.0786  -48.3479  -56.2398 C.3       8 UNK         0.0284 
     31 CB         23.6062  -48.7831  -56.0785 C.3       8 UNK        -0.1977 
     32 N          25.9962  -49.4552  -55.9443 N.am      8 UNK        -0.4342 
     33 C          26.1505  -50.5999  -56.6283 C.2       8 UNK         0.5039 
     34 O          25.4508  -50.9259  -57.5884 O.2       8 UNK        -0.5547 
     35 CA         27.2933  -51.5410  -56.1954 C.3       7 UNK         0.0281 
     36 CB         28.3855  -51.5855  -57.2776 C.3       7 UNK        -0.1963 
     37 N          27.9083  -51.1796  -54.9141 N.am      7 UNK        -0.4444 
     38 C          27.3434  -51.3755  -53.7146 C.2       7 UNK         0.5104 
     39 O          26.2643  -51.9453  -53.5513 O.2       7 UNK        -0.5100 
     40 CA         28.0891  -50.8089  -52.4933 C.3       6 UNK         0.0396 
     41 CB         29.1216  -51.8236  -51.9792 C.3       6 UNK        -0.1801 
     42 N          28.7430  -49.5214  -52.7576 N.am      6 UNK        -0.4747 
     43 C          28.0936  -48.3868  -53.0693 C.2       6 UNK         0.5012 
     44 O          26.8674  -48.3036  -53.1412 O.2       6 UNK        -0.5003 
     45 CA         28.9521  -47.1626  -53.4426 C.3       5 UNK         0.0782 
     46 C46        29.5348  -46.4366  -52.2027 C.3       11 UNK        -0.0868 
     47 S47        28.4188  -45.2273  -51.4230 S.3       11 UNK        -0.2515 
     48 C48        28.2030  -43.9284  -52.6928 C.3       11 UNK         0.0199 
     49 N          30.0133  -47.5189  -54.3819 N.am      5 UNK        -0.4607 
     50 C          29.8419  -47.9806  -55.6246 C.2       4 UNK         0.5031 
     51 O          28.7427  -48.1446  -56.1504 O.2       4 UNK        -0.5119 
     52 CA         31.1161  -48.3637  -56.3934 C.3       4 UNK         0.0263 
     53 CB         31.7740  -47.1261  -57.0219 C.3       4 UNK        -0.1967 
     54 N          32.0904  -49.0535  -55.5455 N.am      4 UNK        -0.4237 
     55 C          31.9080  -50.2740  -55.0229 C.2       3 UNK         0.4908 
     56 O          30.8997  -50.9564  -55.2060 O.2       3 UNK        -0.5102 
     57 CA         33.0304  -50.8093  -54.1198 C.3       3 UNK         0.0241 
     58 CB         34.2315  -51.2784  -54.9571 C.3       3 UNK        -0.1971 
     59 N          33.4738  -49.8252  -53.1304 N.am      3 UNK        -0.4139 
     60 C          32.7137  -49.3734  -52.1237 C.2       2 UNK         0.5016 
     61 O          31.5571  -49.7379  -51.9150 O.2       2 UNK        -0.5319 
     62 CA         33.3323  -48.2950  -51.2191 C.3       2 UNK         0.0286 
     63 CB         34.2544  -48.9338  -50.1683 C.3       2 UNK        -0.1963 
     64 N          34.0571  -47.2315  -51.9269 N.am      2 UNK        -0.4790 
     65 C          33.5620  -46.4964  -52.9346 C.2       1 UNK         0.5024 
     66 O          32.5029  -46.7357  -53.5057 O.2       1 UNK        -0.4888 
     67 H67        38.2797  -46.0458  -53.9881 H         1 UNK         0.0892 
     68 H68        38.0088  -47.7473  -54.3706 H         1 UNK         0.0892 
     69 H69        38.0449  -46.5460  -55.6640 H         1 UNK         0.0892 
     70 H70        36.4657  -45.0577  -53.1485 H         1 UNK         0.3107 
     71 H71        33.9459  -44.9586  -54.3362 H         1 UNK         0.0773 
     72 H72        34.9521  -44.2405  -51.5425 H         1 UNK         0.0680 
     73 H73        33.2501  -44.1511  -51.8770 H         1 UNK         0.0680 
     74 H74        32.6241  -41.6786  -51.7869 H         1 UNK         0.0650 
     75 H75        32.8199  -40.7315  -53.2403 H         1 UNK         0.0650 
     76 H76        30.4700  -42.6880  -51.7636 H         1 UNK         0.1397 
     77 H77        28.7339  -44.3116  -55.3334 H         1 UNK         0.1363 
     78 H78        32.5894  -42.4581  -55.4920 H         1 UNK         0.1355 
     79 H79        31.7444  -43.9460  -57.3638 H         1 UNK         0.0707 
     80 H80        30.1075  -44.5596  -57.2936 H         1 UNK         0.0707 
     81 H81        30.2179  -43.9956  -59.6760 H         1 UNK         0.1034 
     82 H82        30.1135  -42.4289  -60.3878 H         1 UNK         0.1034 
     83 H83        27.6657  -42.8323  -58.8380 H         1 UNK         0.0482 
     84 H84        26.1438  -42.2551  -62.3281 H         1 UNK         0.3460 
     85 H85        26.1689  -43.7572  -61.4441 H         1 UNK         0.3460 
     86 H86        27.7709  -45.0336  -60.7622 H         1 UNK         0.2989 
     87 H87        26.4312  -46.9229  -59.9257 H         1 UNK         0.0559 
     88 H88        29.2282  -47.6206  -58.8613 H         1 UNK         0.0848 
     89 H89        28.8401  -47.1920  -60.5207 H         1 UNK         0.0848 
     90 H90        28.2218  -48.6844  -59.8367 H         1 UNK         0.0848 
     91 H91        27.3608  -47.9031  -57.2789 H         1 UNK         0.3144 
     92 H92        25.2785  -47.5884  -55.4824 H         1 UNK         0.0727 
     93 H93        23.3070  -49.4960  -56.8474 H         1 UNK         0.0790 
     94 H94        22.9356  -47.9262  -56.1527 H         1 UNK         0.0790 
     95 H95        23.4342  -49.2449  -55.1063 H         1 UNK         0.0790 
     96 H96        26.6400  -49.2821  -55.1817 H         1 UNK         0.3215 
     97 H97        26.8677  -52.5423  -56.1004 H         1 UNK         0.0863 
     98 H98        28.8451  -50.6080  -57.4256 H         1 UNK         0.0808 
     99 H99        27.9744  -51.9003  -58.2377 H         1 UNK         0.0808 
    100 H100       29.1747  -52.2911  -57.0173 H         1 UNK         0.0808 
    101 H101       28.8343  -50.7651  -54.9538 H         1 UNK         0.3118 
    102 H102       27.3523  -50.6480  -51.7035 H         1 UNK         0.0546 
    103 H103       29.5820  -51.4841  -51.0513 H         1 UNK         0.0828 
    104 H104       29.9181  -51.9913  -52.7054 H         1 UNK         0.0828 
    105 H105       28.6558  -52.7885  -51.7747 H         1 UNK         0.0828 
    106 H106       29.7582  -49.5098  -52.6901 H         1 UNK         0.3005 
    107 H107       28.2988  -46.4730  -53.9796 H         1 UNK         0.1257 
    108 H108       30.4262  -45.8741  -52.4737 H         1 UNK         0.0775 
    109 H109       29.8718  -47.1492  -51.4474 H         1 UNK         0.0775 
    110 H110       27.4234  -44.2514  -53.3845 H         1 UNK         0.0840 
    111 H111       27.8101  -43.0341  -52.2071 H         1 UNK         0.0840 
    112 H112       30.9662  -47.3693  -54.0520 H         1 UNK         0.2987 
    113 H113       30.8295  -49.0444  -57.1976 H         1 UNK         0.0785 
    114 H114       32.6725  -47.3935  -57.5782 H         1 UNK         0.0798 
    115 H115       31.0962  -46.6396  -57.7224 H         1 UNK         0.0798 
    116 H116       32.0555  -46.3900  -56.2673 H         1 UNK         0.0798 
    117 H117       32.9254  -48.5390  -55.2985 H         1 UNK         0.3079 
    118 H118       32.6344  -51.6722  -53.5797 H         1 UNK         0.0794 
    119 H119       34.9895  -51.7505  -54.3317 H         1 UNK         0.0786 
    120 H120       34.7038  -50.4516  -55.4897 H         1 UNK         0.0786 
    121 H121       33.9240  -52.0139  -55.7019 H         1 UNK         0.0786 
    122 H122       34.3984  -49.4353  -53.2449 H         1 UNK         0.3032 
    123 H123       32.5034  -47.8161  -50.6931 H         1 UNK         0.1094 
    124 H124       35.1385  -49.3818  -50.6234 H         1 UNK         0.0794 
    125 H125       34.5890  -48.2002  -49.4346 H         1 UNK         0.0794 
    126 H126       33.7351  -49.7215  -49.6201 H         1 UNK         0.0794 
    127 H127       34.9545  -46.9675  -51.5460 H         1 UNK         0.3016 
@<TRIPOS>BOND
     1    1    2 1    
     2    1   67 1    
     3    1   68 1    
     4    1   69 1    
     5    2    3 2    
     6    2    4 am   BACKBONE|DICT|INTERRES
     7    4    5 1    
     8    4   70 1    
     9    5    6 1    
    10    5   65 1    
    11    5   71 1    
    12    6    7 1    
    13    6   72 1    
    14    6   73 1    
    15    7    8 1    
    16    8    9 1    
    17    8   74 1    
    18    8   75 1    
    19    9   10 ar   
    20    9   14 ar   
    21   10   11 ar   
    22   10   76 1    
    23   11   12 ar   
    24   11   48 1    
    25   12   13 ar   
    26   12   77 1    
    27   13   14 ar   
    28   13   15 1    
    29   14   78 1    
    30   15   16 1    
    31   15   79 1    
    32   15   80 1    
    33   16   17 1    
    34   17   18 1    
    35   17   81 1    
    36   17   82 1    
    37   18   19 1    
    38   18   22 1    
    39   18   83 1    
    40   19   20 am   BACKBONE|DICT|INTERRES
    41   19   21 2    
    42   20   84 1    
    43   20   85 1    
    44   22   23 am   BACKBONE|DICT|INTERRES
    45   22   86 1    
    46   23   24 2    
    47   23   25 1    
    48   25   26 1    
    49   25   27 1    
    50   25   87 1    
    51   26   88 1    
    52   26   89 1    
    53   26   90 1    
    54   27   28 am   BACKBONE|DICT|INTERRES
    55   27   91 1    
    56   28   29 2    
    57   28   30 1    
    58   30   31 1    
    59   30   32 1    
    60   30   92 1    
    61   31   93 1    
    62   31   94 1    
    63   31   95 1    
    64   32   33 am   BACKBONE|DICT|INTERRES
    65   32   96 1    
    66   33   34 2    
    67   33   35 1    
    68   35   36 1    
    69   35   37 1    
    70   35   97 1    
    71   36   98 1    
    72   36   99 1    
    73   36  100 1    
    74   37   38 am   BACKBONE|DICT|INTERRES
    75   37  101 1    
    76   38   39 2    
    77   38   40 1    
    78   40   41 1    
    79   40   42 1    
    80   40  102 1    
    81   41  103 1    
    82   41  104 1    
    83   41  105 1    
    84   42   43 am   BACKBONE|DICT|INTERRES
    85   42  106 1    
    86   43   44 2    
    87   43   45 1    
    88   45   46 1    
    89   45   49 1    
    90   45  107 1    
    91   46   47 1    
    92   46  108 1    
    93   46  109 1    
    94   47   48 1    
    95   48  110 1    
    96   48  111 1    
    97   49   50 am   BACKBONE|DICT|INTERRES
    98   49  112 1    
    99   50   51 2    
   100   50   52 1    
   101   52   53 1    
   102   52   54 1    
   103   52  113 1    
   104   53  114 1    
   105   53  115 1    
   106   53  116 1    
   107   54   55 am   BACKBONE|DICT|INTERRES
   108   54  117 1    
   109   55   56 2    
   110   55   57 1    
   111   57   58 1    
   112   57   59 1    
   113   57  118 1    
   114   58  119 1    
   115   58  120 1    
   116   58  121 1    
   117   59   60 am   BACKBONE|DICT|INTERRES
   118   59  122 1    
   119   60   61 2    
   120   60   62 1    
   121   62   63 1    
   122   62   64 1    
   123   62  123 1    
   124   63  124 1    
   125   63  125 1    
   126   63  126 1    
   127   64   65 am   BACKBONE|DICT|INTERRES
   128   64  127 1    
   129   65   66 2    
@<TRIPOS>SUBSTRUCTURE
     1 UNK         1 GROUP             0       ****    0 ROOT    
