@<TRIPOS>MOLECULE
3R134
127   129    1
SMALL
USER_CHARGES


@<TRIPOS>ATOM
      1 CA         37.0162  -45.8763  -52.0697 C.3       0 UNK        -0.1968 
      2 C          35.5939  -45.7455  -52.5940 C.2       0 UNK         0.4852 
      3 O          35.3267  -46.1293  -53.7320 O.2       0 UNK        -0.5359 
      4 N          34.6850  -45.2045  -51.7721 N.am      1 UNK        -0.4300 
      5 CA         33.2661  -44.9977  -52.1028 C.3       1 UNK         0.0863 
      6 C6         32.6799  -43.7470  -51.3933 C.3       11 UNK        -0.0953 
      7 S7         33.7088  -42.2507  -51.6250 S.3       11 UNK        -0.2369 
      8 C8         32.6688  -41.1843  -52.6843 C.3       11 UNK         0.0226 
      9 C9         32.3463  -41.7353  -54.0745 C.ar      11 UNK        -0.0699 
     10 C10        33.1444  -42.6928  -54.7120 C.ar      11 UNK        -0.0804 
     11 C11        32.7793  -43.2241  -55.9525 C.ar      11 UNK        -0.0871 
     12 C12        31.6463  -42.7232  -56.6030 C.ar      11 UNK        -0.1008 
     13 C13        30.8592  -41.7400  -55.9979 C.ar      11 UNK        -0.0735 
     14 C14        31.2131  -41.2551  -54.7359 C.ar      11 UNK        -0.0945 
     15 C15        29.6199  -41.2023  -56.6967 C.3       11 UNK         0.0169 
     16 S16        28.0957  -41.7064  -55.8393 S.3       11 UNK        -0.2669 
     17 C17        28.0128  -43.4877  -56.2333 C.3       11 UNK        -0.0850 
     18 CA         26.7459  -43.8457  -57.0598 C.3       10 UNK         0.0855 
     19 C          26.9723  -43.7450  -58.6002 C.2       10 UNK         0.5543 
     20 N          26.5577  -44.7143  -59.4079 N.am      10 UNK        -0.7343 
     21 O          27.5256  -42.7608  -59.0825 O.2       10 UNK        -0.5027 
     22 N          26.1809  -45.1289  -56.6178 N.am      10 UNK        -0.4495 
     23 C          24.8758  -45.4268  -56.6065 C.2       10 UNK         0.4903 
     24 O          23.9848  -44.6231  -56.8879 O.2       10 UNK        -0.4860 
     25 CA         24.5187  -46.8807  -56.2429 C.3       9 UNK         0.0227 
     26 CB         23.0287  -47.2123  -56.4697 C.3       9 UNK        -0.1964 
     27 N          25.3728  -47.8603  -56.9259 N.am      9 UNK        -0.4231 
     28 C          25.5590  -47.9957  -58.2495 C.2       9 UNK         0.5014 
     29 O          25.0079  -47.2826  -59.0891 O.2       9 UNK        -0.5270 
     30 CA         26.5526  -49.0668  -58.7409 C.3       8 UNK         0.0284 
     31 CB         27.7343  -48.3981  -59.4645 C.3       8 UNK        -0.1977 
     32 N          27.0734  -49.9292  -57.6774 N.am      8 UNK        -0.4342 
     33 C          26.3854  -50.9038  -57.0678 C.2       8 UNK         0.5039 
     34 O          25.2486  -51.2472  -57.3929 O.2       8 UNK        -0.5547 
     35 CA         27.0603  -51.5701  -55.8563 C.3       7 UNK         0.0281 
     36 CB         27.9994  -52.6988  -56.3098 C.3       7 UNK        -0.1963 
     37 N          27.7987  -50.6206  -55.0155 N.am      7 UNK        -0.4444 
     38 C          27.2532  -49.5853  -54.3602 C.2       7 UNK         0.5104 
     39 O          26.0515  -49.3228  -54.3770 O.2       7 UNK        -0.5100 
     40 CA         28.2122  -48.6528  -53.6040 C.3       6 UNK         0.0396 
     41 CB         28.6310  -49.2562  -52.2555 C.3       6 UNK        -0.1801 
     42 N          29.3934  -48.3291  -54.4053 N.am      6 UNK        -0.4747 
     43 C          29.3789  -47.4921  -55.4532 C.2       6 UNK         0.5012 
     44 O          28.3846  -46.8495  -55.7983 O.2       6 UNK        -0.5003 
     45 CA         30.6626  -47.3963  -56.3021 C.3       5 UNK         0.0782 
     46 C46        31.5529  -46.1996  -55.8877 C.3       11 UNK        -0.0868 
     47 S47        32.6435  -45.7147  -57.2698 S.3       11 UNK        -0.2515 
     48 C48        33.6208  -44.3399  -56.5670 C.3       11 UNK         0.0199 
     49 N          31.4078  -48.6617  -56.3281 N.am      5 UNK        -0.4607 
     50 C          30.9848  -49.7537  -56.9785 C.2       4 UNK         0.5031 
     51 O          29.9233  -49.8067  -57.5968 O.2       4 UNK        -0.5119 
     52 CA         31.8652  -51.0112  -56.9016 C.3       4 UNK         0.0263 
     53 CB         33.0204  -50.9221  -57.9113 C.3       4 UNK        -0.1967 
     54 N          32.3991  -51.2901  -55.5660 N.am      4 UNK        -0.4237 
     55 C          31.6681  -51.4600  -54.4554 C.2       3 UNK         0.4908 
     56 O          30.4429  -51.3486  -54.4195 O.2       3 UNK        -0.5102 
     57 CA         32.4121  -51.8086  -53.1538 C.3       3 UNK         0.0241 
     58 CB         33.9059  -52.1608  -53.3475 C.3       3 UNK        -0.1971 
     59 N          32.2567  -50.7595  -52.1395 N.am      3 UNK        -0.4139 
     60 C          32.6191  -49.4733  -52.2547 C.2       2 UNK         0.5016 
     61 O          33.0906  -48.9873  -53.2866 O.2       2 UNK        -0.5319 
     62 CA         32.4413  -48.6028  -50.9924 C.3       2 UNK         0.0286 
     63 CB         33.1251  -49.2348  -49.7645 C.3       2 UNK        -0.1963 
     64 N          33.0020  -47.2658  -51.1838 N.am      2 UNK        -0.4790 
     65 C          32.4112  -46.2561  -51.8370 C.2       1 UNK         0.5024 
     66 O          31.2456  -46.2929  -52.2331 O.2       1 UNK        -0.4888 
     67 H67        37.7028  -45.3212  -52.7083 H         1 UNK         0.0892 
     68 H68        37.1147  -45.4938  -51.0539 H         1 UNK         0.0892 
     69 H69        37.3210  -46.9224  -52.0697 H         1 UNK         0.0892 
     70 H70        34.9696  -44.8788  -50.8587 H         1 UNK         0.3107 
     71 H71        33.1850  -44.8409  -53.1770 H         1 UNK         0.0773 
     72 H72        31.6684  -43.5457  -51.7516 H         1 UNK         0.0680 
     73 H73        32.5919  -43.9246  -50.3199 H         1 UNK         0.0680 
     74 H74        31.7427  -40.9766  -52.1459 H         1 UNK         0.0650 
     75 H75        33.1759  -40.2265  -52.8060 H         1 UNK         0.0650 
     76 H76        34.0442  -43.0505  -54.2322 H         1 UNK         0.1397 
     77 H77        31.3678  -43.1129  -57.5727 H         1 UNK         0.1363 
     78 H78        30.5928  -40.5049  -54.2640 H         1 UNK         0.1355 
     79 H79        29.6676  -40.1126  -56.7188 H         1 UNK         0.0707 
     80 H80        29.5807  -41.5279  -57.7373 H         1 UNK         0.0707 
     81 H81        28.9230  -43.8258  -56.7316 H         1 UNK         0.1034 
     82 H82        28.0041  -44.0092  -55.2745 H         1 UNK         0.1034 
     83 H83        25.9926  -43.0858  -56.8439 H         1 UNK         0.0482 
     84 H84        26.0459  -45.5144  -59.0560 H         1 UNK         0.3460 
     85 H85        26.7112  -44.6187  -60.3987 H         1 UNK         0.3460 
     86 H86        26.8573  -45.8505  -56.3792 H         1 UNK         0.2989 
     87 H87        24.7225  -46.9868  -55.1766 H         1 UNK         0.0559 
     88 H88        22.7416  -47.0922  -57.5149 H         1 UNK         0.0848 
     89 H89        22.3874  -46.5574  -55.8786 H         1 UNK         0.0848 
     90 H90        22.8025  -48.2372  -56.1755 H         1 UNK         0.0848 
     91 H91        25.8702  -48.4909  -56.3076 H         1 UNK         0.3144 
     92 H92        26.0220  -49.6935  -59.4606 H         1 UNK         0.0727 
     93 H93        28.2934  -47.7412  -58.7970 H         1 UNK         0.0790 
     94 H94        27.3915  -47.7928  -60.3048 H         1 UNK         0.0790 
     95 H95        28.4267  -49.1393  -59.8641 H         1 UNK         0.0790 
     96 H96        28.0447  -49.7798  -57.4103 H         1 UNK         0.3215 
     97 H97        26.2722  -52.0084  -55.2403 H         1 UNK         0.0863 
     98 H98        28.4344  -53.2200  -55.4567 H         1 UNK         0.0808 
     99 H99        28.8175  -52.3205  -56.9229 H         1 UNK         0.0808 
    100 H100       27.4615  -53.4392  -56.9034 H         1 UNK         0.0808 
    101 H101       28.7976  -50.7917  -54.9030 H         1 UNK         0.3118 
    102 H102       27.6753  -47.7245  -53.3959 H         1 UNK         0.0546 
    103 H103       29.2069  -48.5388  -51.6725 H         1 UNK         0.0828 
    104 H104       29.2303  -50.1585  -52.3755 H         1 UNK         0.0828 
    105 H105       27.7564  -49.5235  -51.6609 H         1 UNK         0.0828 
    106 H106       30.2372  -48.8526  -54.2181 H         1 UNK         0.3005 
    107 H107       30.3102  -47.2071  -57.3193 H         1 UNK         0.1257 
    108 H108       30.9429  -45.3348  -55.6194 H         1 UNK         0.0775 
    109 H109       32.1541  -46.4399  -55.0088 H         1 UNK         0.0775 
    110 H110       34.3035  -44.7574  -55.8256 H         1 UNK         0.0840 
    111 H111       34.2453  -43.9152  -57.3538 H         1 UNK         0.0840 
    112 H112       32.2741  -48.6964  -55.8077 H         1 UNK         0.2987 
    113 H113       31.2397  -51.8614  -57.1802 H         1 UNK         0.0785 
    114 H114       33.7126  -50.1158  -57.6650 H         1 UNK         0.0798 
    115 H115       32.6445  -50.7324  -58.9178 H         1 UNK         0.0798 
    116 H116       33.5874  -51.8525  -57.9502 H         1 UNK         0.0798 
    117 H117       33.4023  -51.3701  -55.4864 H         1 UNK         0.3079 
    118 H118       31.9166  -52.6964  -52.7579 H         1 UNK         0.0794 
    119 H119       34.4896  -51.3153  -53.7137 H         1 UNK         0.0786 
    120 H120       34.0309  -52.9850  -54.0513 H         1 UNK         0.0786 
    121 H121       34.3534  -52.4801  -52.4062 H         1 UNK         0.0786 
    122 H122       31.8459  -51.0629  -51.2678 H         1 UNK         0.3032 
    123 H123       31.3728  -48.5123  -50.7904 H         1 UNK         0.1094 
    124 H124       33.0498  -48.5852  -48.8920 H         1 UNK         0.0794 
    125 H125       32.6632  -50.1833  -49.4890 H         1 UNK         0.0794 
    126 H126       34.1836  -49.4269  -49.9462 H         1 UNK         0.0794 
    127 H127       33.9762  -47.1534  -50.9467 H         1 UNK         0.3016 
@<TRIPOS>BOND
     1    1    2 1    
     2    1   67 1    
     3    1   68 1    
     4    1   69 1    
     5    2    3 2    
     6    2    4 am   BACKBONE|DICT|INTERRES
     7    4    5 1    
     8    4   70 1    
     9    5    6 1    
    10    5   65 1    
    11    5   71 1    
    12    6    7 1    
    13    6   72 1    
    14    6   73 1    
    15    7    8 1    
    16    8    9 1    
    17    8   74 1    
    18    8   75 1    
    19    9   10 ar   
    20    9   14 ar   
    21   10   11 ar   
    22   10   76 1    
    23   11   12 ar   
    24   11   48 1    
    25   12   13 ar   
    26   12   77 1    
    27   13   14 ar   
    28   13   15 1    
    29   14   78 1    
    30   15   16 1    
    31   15   79 1    
    32   15   80 1    
    33   16   17 1    
    34   17   18 1    
    35   17   81 1    
    36   17   82 1    
    37   18   19 1    
    38   18   22 1    
    39   18   83 1    
    40   19   20 am   BACKBONE|DICT|INTERRES
    41   19   21 2    
    42   20   84 1    
    43   20   85 1    
    44   22   23 am   BACKBONE|DICT|INTERRES
    45   22   86 1    
    46   23   24 2    
    47   23   25 1    
    48   25   26 1    
    49   25   27 1    
    50   25   87 1    
    51   26   88 1    
    52   26   89 1    
    53   26   90 1    
    54   27   28 am   BACKBONE|DICT|INTERRES
    55   27   91 1    
    56   28   29 2    
    57   28   30 1    
    58   30   31 1    
    59   30   32 1    
    60   30   92 1    
    61   31   93 1    
    62   31   94 1    
    63   31   95 1    
    64   32   33 am   BACKBONE|DICT|INTERRES
    65   32   96 1    
    66   33   34 2    
    67   33   35 1    
    68   35   36 1    
    69   35   37 1    
    70   35   97 1    
    71   36   98 1    
    72   36   99 1    
    73   36  100 1    
    74   37   38 am   BACKBONE|DICT|INTERRES
    75   37  101 1    
    76   38   39 2    
    77   38   40 1    
    78   40   41 1    
    79   40   42 1    
    80   40  102 1    
    81   41  103 1    
    82   41  104 1    
    83   41  105 1    
    84   42   43 am   BACKBONE|DICT|INTERRES
    85   42  106 1    
    86   43   44 2    
    87   43   45 1    
    88   45   46 1    
    89   45   49 1    
    90   45  107 1    
    91   46   47 1    
    92   46  108 1    
    93   46  109 1    
    94   47   48 1    
    95   48  110 1    
    96   48  111 1    
    97   49   50 am   BACKBONE|DICT|INTERRES
    98   49  112 1    
    99   50   51 2    
   100   50   52 1    
   101   52   53 1    
   102   52   54 1    
   103   52  113 1    
   104   53  114 1    
   105   53  115 1    
   106   53  116 1    
   107   54   55 am   BACKBONE|DICT|INTERRES
   108   54  117 1    
   109   55   56 2    
   110   55   57 1    
   111   57   58 1    
   112   57   59 1    
   113   57  118 1    
   114   58  119 1    
   115   58  120 1    
   116   58  121 1    
   117   59   60 am   BACKBONE|DICT|INTERRES
   118   59  122 1    
   119   60   61 2    
   120   60   62 1    
   121   62   63 1    
   122   62   64 1    
   123   62  123 1    
   124   63  124 1    
   125   63  125 1    
   126   63  126 1    
   127   64   65 am   BACKBONE|DICT|INTERRES
   128   64  127 1    
   129   65   66 2    
@<TRIPOS>SUBSTRUCTURE
     1 UNK         1 GROUP             0       ****    0 ROOT    
