@<TRIPOS>MOLECULE
3R134
127   129    1
SMALL
USER_CHARGES


@<TRIPOS>ATOM
      1 CA         37.7953  -47.0309  -53.2855 C.3       0 UNK        -0.1968 
      2 C          36.4168  -47.2154  -53.9020 C.2       0 UNK         0.4852 
      3 O          35.6974  -48.1381  -53.5132 O.2       0 UNK        -0.5359 
      4 N          36.0526  -46.3485  -54.8601 N.am      1 UNK        -0.4300 
      5 CA         34.7770  -46.3256  -55.5928 C.3       1 UNK         0.0863 
      6 C6         33.5627  -45.9249  -54.7017 C.3       11 UNK        -0.0953 
      7 S7         33.8320  -44.3046  -53.9051 S.3       11 UNK        -0.2369 
      8 C8         32.8379  -43.1761  -54.9436 C.3       11 UNK         0.0226 
      9 C9         31.4614  -42.7940  -54.3910 C.ar      11 UNK        -0.0699 
     10 C10        31.0641  -43.0660  -53.0737 C.ar      11 UNK        -0.0804 
     11 C11        29.8149  -42.6501  -52.6037 C.ar      11 UNK        -0.0871 
     12 C12        28.9635  -41.9384  -53.4493 C.ar      11 UNK        -0.1008 
     13 C13        29.3364  -41.6642  -54.7668 C.ar      11 UNK        -0.0735 
     14 C14        30.5840  -42.0961  -55.2289 C.ar      11 UNK        -0.0945 
     15 C15        28.3972  -40.8970  -55.6919 C.3       11 UNK         0.0169 
     16 S16        26.6967  -41.5628  -55.7007 S.3       11 UNK        -0.2669 
     17 C17        26.9859  -43.2908  -56.2121 C.3       11 UNK        -0.0850 
     18 CA         26.5182  -43.6138  -57.6525 C.3       10 UNK         0.0855 
     19 C          27.4567  -42.9886  -58.7333 C.2       10 UNK         0.5543 
     20 N          28.2793  -43.7580  -59.4371 N.am      10 UNK        -0.7343 
     21 O          27.4215  -41.7820  -58.9589 O.2       10 UNK        -0.5027 
     22 N          26.3147  -45.0618  -57.7853 N.am      10 UNK        -0.4495 
     23 C          25.6997  -45.6628  -58.8112 C.2       10 UNK         0.4903 
     24 O          25.0894  -45.0567  -59.6935 O.2       10 UNK        -0.4860 
     25 CA         25.8048  -47.2000  -58.8611 C.3       9 UNK         0.0227 
     26 CB         25.6080  -47.7643  -60.2836 C.3       9 UNK        -0.1964 
     27 N          27.0475  -47.7162  -58.2694 N.am      9 UNK        -0.4231 
     28 C          28.3103  -47.4280  -58.6306 C.2       9 UNK         0.5014 
     29 O          28.5948  -46.6590  -59.5495 O.2       9 UNK        -0.5270 
     30 CA         29.4600  -48.0581  -57.8194 C.3       8 UNK         0.0284 
     31 CB         30.2884  -46.9690  -57.1144 C.3       8 UNK        -0.1977 
     32 N          29.0119  -49.0301  -56.8205 N.am      8 UNK        -0.4342 
     33 C          28.5676  -50.2652  -57.0909 C.2       8 UNK         0.5039 
     34 O          28.5736  -50.7679  -58.2145 O.2       8 UNK        -0.5547 
     35 CA         27.9526  -51.0426  -55.9156 C.3       7 UNK         0.0281 
     36 CB         29.0271  -51.8515  -55.1737 C.3       7 UNK        -0.1963 
     37 N          27.2429  -50.1647  -54.9767 N.am      7 UNK        -0.4444 
     38 C          26.1206  -49.4914  -55.2733 C.2       7 UNK         0.5104 
     39 O          25.5435  -49.5713  -56.3567 O.2       7 UNK        -0.5100 
     40 CA         25.5758  -48.5308  -54.2049 C.3       6 UNK         0.0396 
     41 CB         24.6698  -49.2805  -53.2160 C.3       6 UNK        -0.1801 
     42 N          26.6396  -47.8425  -53.4720 N.am      6 UNK        -0.4747 
     43 C          27.4298  -46.8848  -53.9823 C.2       6 UNK         0.5012 
     44 O          27.3307  -46.4511  -55.1320 O.2       6 UNK        -0.5003 
     45 CA         28.5430  -46.3658  -53.0485 C.3       5 UNK         0.0782 
     46 C46        27.9895  -45.2840  -52.0830 C.3       11 UNK        -0.0868 
     47 S47        29.2343  -44.7384  -50.8567 S.3       11 UNK        -0.2515 
     48 C48        29.3833  -42.9526  -51.1766 C.3       11 UNK         0.0199 
     49 N          29.1859  -47.4630  -52.3136 N.am      5 UNK        -0.4607 
     50 C          29.8929  -48.4604  -52.8526 C.2       4 UNK         0.5031 
     51 O          30.0567  -48.6194  -54.0651 O.2       4 UNK        -0.5119 
     52 CA         30.4832  -49.4657  -51.8605 C.3       4 UNK         0.0263 
     53 CB         29.4528  -50.5429  -51.4763 C.3       4 UNK        -0.1967 
     54 N          31.6621  -50.0818  -52.4571 N.am      4 UNK        -0.4237 
     55 C          32.7089  -50.5713  -51.7833 C.2       3 UNK         0.4908 
     56 O          32.7479  -50.6398  -50.5538 O.2       3 UNK        -0.5102 
     57 CA         33.9447  -51.0263  -52.5836 C.3       3 UNK         0.0241 
     58 CB         34.0904  -52.5620  -52.5793 C.3       3 UNK        -0.1971 
     59 N          34.0424  -50.4608  -53.9380 N.am      3 UNK        -0.4139 
     60 C          33.3307  -50.7716  -55.0330 C.2       2 UNK         0.5016 
     61 O          32.4511  -51.6315  -55.0571 O.2       2 UNK        -0.5319 
     62 CA         33.6078  -49.9247  -56.2847 C.3       2 UNK         0.0286 
     63 CB         32.5498  -50.1060  -57.3864 C.3       2 UNK        -0.1963 
     64 N          33.6947  -48.5176  -55.8948 N.am      2 UNK        -0.4790 
     65 C          34.6035  -47.6545  -56.3599 C.2       1 UNK         0.5024 
     66 O          35.3409  -47.8910  -57.3187 O.2       1 UNK        -0.4888 
     67 H67        38.3243  -46.1797  -53.7135 H         1 UNK         0.0892 
     68 H68        37.7055  -46.8692  -52.2118 H         1 UNK         0.0892 
     69 H69        38.3999  -47.9229  -53.4467 H         1 UNK         0.0892 
     70 H70        36.7100  -45.6345  -55.1403 H         1 UNK         0.3107 
     71 H71        34.8818  -45.5569  -56.3602 H         1 UNK         0.0773 
     72 H72        33.3972  -46.6544  -53.9072 H         1 UNK         0.0680 
     73 H73        32.6415  -45.8900  -55.2856 H         1 UNK         0.0680 
     74 H74        32.7297  -43.6026  -55.9419 H         1 UNK         0.0650 
     75 H75        33.4114  -42.2569  -55.0690 H         1 UNK         0.0650 
     76 H76        31.7173  -43.5971  -52.3967 H         1 UNK         0.1397 
     77 H77        28.0006  -41.6042  -53.0873 H         1 UNK         0.1363 
     78 H78        30.8819  -41.8753  -56.2451 H         1 UNK         0.1355 
     79 H79        28.3646  -39.8545  -55.3733 H         1 UNK         0.0707 
     80 H80        28.7782  -40.8947  -56.7141 H         1 UNK         0.0707 
     81 H81        28.0299  -43.5774  -56.0774 H         1 UNK         0.1034 
     82 H82        26.4294  -43.9029  -55.5005 H         1 UNK         0.1034 
     83 H83        25.5382  -43.1542  -57.7947 H         1 UNK         0.0482 
     84 H84        28.2953  -44.7670  -59.3232 H         1 UNK         0.3460 
     85 H85        28.8648  -43.3307  -60.1362 H         1 UNK         0.3460 
     86 H86        26.7687  -45.6411  -57.0885 H         1 UNK         0.2989 
     87 H87        24.9922  -47.5782  -58.2396 H         1 UNK         0.0559 
     88 H88        24.6271  -47.4985  -60.6796 H         1 UNK         0.0848 
     89 H89        25.6740  -48.8522  -60.2907 H         1 UNK         0.0848 
     90 H90        26.3547  -47.3780  -60.9783 H         1 UNK         0.0848 
     91 H91        26.9125  -48.3567  -57.4964 H         1 UNK         0.3144 
     92 H92        30.1078  -48.5719  -58.5323 H         1 UNK         0.0727 
     93 H93        29.6861  -46.3898  -56.4143 H         1 UNK         0.0790 
     94 H94        30.7124  -46.2690  -57.8355 H         1 UNK         0.0790 
     95 H95        31.1187  -47.4028  -56.5590 H         1 UNK         0.0790 
     96 H96        29.0510  -48.7344  -55.8500 H         1 UNK         0.3215 
     97 H97        27.2267  -51.7450  -56.3314 H         1 UNK         0.0863 
     98 H98        28.5910  -52.4710  -54.3903 H         1 UNK         0.0808 
     99 H99        29.7786  -51.2067  -54.7191 H         1 UNK         0.0808 
    100 H100       29.5528  -52.5193  -55.8577 H         1 UNK         0.0808 
    101 H101       27.6679  -50.0166  -54.0743 H         1 UNK         0.3118 
    102 H102       24.9718  -47.7760  -54.7135 H         1 UNK         0.0546 
    103 H103       25.2171  -50.0406  -52.6572 H         1 UNK         0.0828 
    104 H104       23.8559  -49.7845  -53.7393 H         1 UNK         0.0828 
    105 H105       24.2155  -48.5974  -52.4981 H         1 UNK         0.0828 
    106 H106       26.7964  -48.1299  -52.5166 H         1 UNK         0.3005 
    107 H107       29.3048  -45.9028  -53.6808 H         1 UNK         0.1257 
    108 H108       27.1317  -45.6655  -51.5257 H         1 UNK         0.0775 
    109 H109       27.6214  -44.4250  -52.6469 H         1 UNK         0.0775 
    110 H110       28.4314  -42.4727  -50.9437 H         1 UNK         0.0840 
    111 H111       30.1147  -42.5301  -50.4864 H         1 UNK         0.0840 
    112 H112       29.1220  -47.4006  -51.3075 H         1 UNK         0.2987 
    113 H113       30.7847  -48.9182  -50.9645 H         1 UNK         0.0785 
    114 H114       28.5558  -50.0967  -51.0453 H         1 UNK         0.0798 
    115 H115       29.8587  -51.2282  -50.7319 H         1 UNK         0.0798 
    116 H116       29.1446  -51.1356  -52.3366 H         1 UNK         0.0798 
    117 H117       31.6834  -50.0702  -53.4695 H         1 UNK         0.3079 
    118 H118       34.8064  -50.6206  -52.0509 H         1 UNK         0.0794 
    119 H119       34.9822  -52.8785  -53.1201 H         1 UNK         0.0786 
    120 H120       33.2292  -53.0573  -53.0283 H         1 UNK         0.0786 
    121 H121       34.1792  -52.9386  -51.5595 H         1 UNK         0.0786 
    122 H122       34.6971  -49.6820  -54.0046 H         1 UNK         0.3032 
    123 H123       34.5710  -50.2629  -56.6745 H         1 UNK         0.1094 
    124 H124       31.5536  -49.8911  -57.0073 H         1 UNK         0.0794 
    125 H125       32.7388  -49.4525  -58.2379 H         1 UNK         0.0794 
    126 H126       32.5415  -51.1320  -57.7559 H         1 UNK         0.0794 
    127 H127       33.1423  -48.2474  -55.0927 H         1 UNK         0.3016 
@<TRIPOS>BOND
     1    1    2 1    
     2    1   67 1    
     3    1   68 1    
     4    1   69 1    
     5    2    3 2    
     6    2    4 am   BACKBONE|DICT|INTERRES
     7    4    5 1    
     8    4   70 1    
     9    5    6 1    
    10    5   65 1    
    11    5   71 1    
    12    6    7 1    
    13    6   72 1    
    14    6   73 1    
    15    7    8 1    
    16    8    9 1    
    17    8   74 1    
    18    8   75 1    
    19    9   10 ar   
    20    9   14 ar   
    21   10   11 ar   
    22   10   76 1    
    23   11   12 ar   
    24   11   48 1    
    25   12   13 ar   
    26   12   77 1    
    27   13   14 ar   
    28   13   15 1    
    29   14   78 1    
    30   15   16 1    
    31   15   79 1    
    32   15   80 1    
    33   16   17 1    
    34   17   18 1    
    35   17   81 1    
    36   17   82 1    
    37   18   19 1    
    38   18   22 1    
    39   18   83 1    
    40   19   20 am   BACKBONE|DICT|INTERRES
    41   19   21 2    
    42   20   84 1    
    43   20   85 1    
    44   22   23 am   BACKBONE|DICT|INTERRES
    45   22   86 1    
    46   23   24 2    
    47   23   25 1    
    48   25   26 1    
    49   25   27 1    
    50   25   87 1    
    51   26   88 1    
    52   26   89 1    
    53   26   90 1    
    54   27   28 am   BACKBONE|DICT|INTERRES
    55   27   91 1    
    56   28   29 2    
    57   28   30 1    
    58   30   31 1    
    59   30   32 1    
    60   30   92 1    
    61   31   93 1    
    62   31   94 1    
    63   31   95 1    
    64   32   33 am   BACKBONE|DICT|INTERRES
    65   32   96 1    
    66   33   34 2    
    67   33   35 1    
    68   35   36 1    
    69   35   37 1    
    70   35   97 1    
    71   36   98 1    
    72   36   99 1    
    73   36  100 1    
    74   37   38 am   BACKBONE|DICT|INTERRES
    75   37  101 1    
    76   38   39 2    
    77   38   40 1    
    78   40   41 1    
    79   40   42 1    
    80   40  102 1    
    81   41  103 1    
    82   41  104 1    
    83   41  105 1    
    84   42   43 am   BACKBONE|DICT|INTERRES
    85   42  106 1    
    86   43   44 2    
    87   43   45 1    
    88   45   46 1    
    89   45   49 1    
    90   45  107 1    
    91   46   47 1    
    92   46  108 1    
    93   46  109 1    
    94   47   48 1    
    95   48  110 1    
    96   48  111 1    
    97   49   50 am   BACKBONE|DICT|INTERRES
    98   49  112 1    
    99   50   51 2    
   100   50   52 1    
   101   52   53 1    
   102   52   54 1    
   103   52  113 1    
   104   53  114 1    
   105   53  115 1    
   106   53  116 1    
   107   54   55 am   BACKBONE|DICT|INTERRES
   108   54  117 1    
   109   55   56 2    
   110   55   57 1    
   111   57   58 1    
   112   57   59 1    
   113   57  118 1    
   114   58  119 1    
   115   58  120 1    
   116   58  121 1    
   117   59   60 am   BACKBONE|DICT|INTERRES
   118   59  122 1    
   119   60   61 2    
   120   60   62 1    
   121   62   63 1    
   122   62   64 1    
   123   62  123 1    
   124   63  124 1    
   125   63  125 1    
   126   63  126 1    
   127   64   65 am   BACKBONE|DICT|INTERRES
   128   64  127 1    
   129   65   66 2    
@<TRIPOS>SUBSTRUCTURE
     1 UNK         1 GROUP             0       ****    0 ROOT    
