@<TRIPOS>MOLECULE
3R134
127   129    1
SMALL
USER_CHARGES


@<TRIPOS>ATOM
      1 CA         34.9932  -47.6329  -48.3809 C.3       0 UNK        -0.1968 
      2 C          35.1648  -46.8463  -49.6721 C.2       0 UNK         0.4852 
      3 O          36.2514  -46.8554  -50.2535 O.2       0 UNK        -0.5359 
      4 N          34.1049  -46.1606  -50.1202 N.am      1 UNK        -0.4300 
      5 CA         34.0608  -45.4227  -51.3836 C.3       1 UNK         0.0863 
      6 C6         32.9951  -44.2947  -51.3480 C.3       11 UNK        -0.0953 
      7 S7         33.5104  -42.7704  -52.2166 S.3       11 UNK        -0.2369 
      8 C8         33.2269  -43.1371  -53.9881 C.3       11 UNK         0.0226 
      9 C9         31.7761  -43.3144  -54.4454 C.ar      11 UNK        -0.0699 
     10 C10        30.6816  -43.2347  -53.5740 C.ar      11 UNK        -0.0804 
     11 C11        29.3929  -43.5309  -54.0199 C.ar      11 UNK        -0.0871 
     12 C12        29.1803  -43.8206  -55.3685 C.ar      11 UNK        -0.1008 
     13 C13        30.2497  -43.8544  -56.2649 C.ar      11 UNK        -0.0735 
     14 C14        31.5437  -43.6104  -55.7945 C.ar      11 UNK        -0.0945 
     15 C15        30.0125  -44.2338  -57.7205 C.3       11 UNK         0.0169 
     16 S16        29.7545  -42.7893  -58.8009 S.3       11 UNK        -0.2669 
     17 C17        28.0925  -42.1949  -58.3119 C.3       11 UNK        -0.0850 
     18 CA         26.9257  -42.6405  -59.2417 C.3       10 UNK         0.0855 
     19 C          26.9952  -42.0176  -60.6618 C.2       10 UNK         0.5543 
     20 N          26.8966  -40.6996  -60.7688 N.am      10 UNK        -0.7343 
     21 O          27.1315  -42.7142  -61.6674 O.2       10 UNK        -0.5027 
     22 N          26.7591  -44.0966  -59.3177 N.am      10 UNK        -0.4495 
     23 C          26.3091  -44.8975  -58.3468 C.2       10 UNK         0.4903 
     24 O          26.0090  -44.4957  -57.2202 O.2       10 UNK        -0.4860 
     25 CA         26.1510  -46.3891  -58.7046 C.3       9 UNK         0.0227 
     26 CB         27.2321  -46.8902  -59.6826 C.3       9 UNK        -0.1964 
     27 N          26.2030  -47.2114  -57.4963 N.am      9 UNK        -0.4231 
     28 C          25.1501  -47.7234  -56.8494 C.2       9 UNK         0.5014 
     29 O          23.9841  -47.6054  -57.2350 O.2       9 UNK        -0.5270 
     30 CA         25.4624  -48.4989  -55.5502 C.3       8 UNK         0.0284 
     31 CB         24.2074  -49.1186  -54.8995 C.3       8 UNK        -0.1977 
     32 N          26.5111  -49.5173  -55.7097 N.am      8 UNK        -0.4342 
     33 C          26.5239  -50.5434  -56.5760 C.2       8 UNK         0.5039 
     34 O          25.6135  -50.7931  -57.3690 O.2       8 UNK        -0.5547 
     35 CA         27.7751  -51.4440  -56.5350 C.3       7 UNK         0.0281 
     36 CB         27.7950  -52.5184  -57.6436 C.3       7 UNK        -0.1963 
     37 N          29.0178  -50.6662  -56.5333 N.am      7 UNK        -0.4444 
     38 C          29.4562  -49.8167  -57.4739 C.2       7 UNK         0.5104 
     39 O          28.9110  -49.6447  -58.5643 O.2       7 UNK        -0.5100 
     40 CA         30.7013  -48.9902  -57.0891 C.3       6 UNK         0.0396 
     41 CB         31.1280  -47.9882  -58.1810 C.3       6 UNK        -0.1801 
     42 N          30.5263  -48.3031  -55.8025 N.am      6 UNK        -0.4747 
     43 C          29.5374  -47.4595  -55.4597 C.2       6 UNK         0.5012 
     44 O          28.6600  -47.0921  -56.2391 O.2       6 UNK        -0.5003 
     45 CA         29.5194  -46.9750  -53.9912 C.3       5 UNK         0.0782 
     46 C46        28.1378  -46.4136  -53.5302 C.3       11 UNK        -0.0868 
     47 S47        28.3053  -45.2380  -52.1445 S.3       11 UNK        -0.2515 
     48 C48        28.2493  -43.6370  -53.0234 C.3       11 UNK         0.0199 
     49 N          30.0647  -47.9945  -53.0858 N.am      5 UNK        -0.4607 
     50 C          29.5385  -49.2064  -52.8606 C.2       4 UNK         0.5031 
     51 O          28.4826  -49.6002  -53.3647 O.2       4 UNK        -0.5119 
     52 CA         30.3916  -50.1510  -51.9938 C.3       4 UNK         0.0263 
     53 CB         29.6173  -51.4103  -51.5497 C.3       4 UNK        -0.1967 
     54 N          31.6461  -50.5217  -52.6664 N.am      4 UNK        -0.4237 
     55 C          31.7815  -51.1318  -53.8539 C.2       3 UNK         0.4908 
     56 O          30.8345  -51.4689  -54.5638 O.2       3 UNK        -0.5102 
     57 CA         33.2209  -51.3510  -54.3577 C.3       3 UNK         0.0241 
     58 CB         33.2786  -52.2467  -55.6104 C.3       3 UNK        -0.1971 
     59 N          33.8686  -50.0721  -54.6582 N.am      3 UNK        -0.4139 
     60 C          34.3862  -49.2467  -53.7403 C.2       2 UNK         0.5016 
     61 O          34.4331  -49.5302  -52.5395 O.2       2 UNK        -0.5319 
     62 CA         34.9292  -47.8867  -54.2355 C.3       2 UNK         0.0286 
     63 CB         34.2278  -47.3643  -55.5123 C.3       2 UNK        -0.1963 
     64 N          34.8960  -46.8596  -53.1854 N.am      2 UNK        -0.4790 
     65 C          33.8122  -46.4307  -52.5222 C.2       1 UNK         0.5024 
     66 O          32.6656  -46.8313  -52.7422 O.2       1 UNK        -0.4888 
     67 H67        33.9948  -47.5150  -47.9600 H         1 UNK         0.0892 
     68 H68        35.1604  -48.6939  -48.5649 H         1 UNK         0.0892 
     69 H69        35.7159  -47.2972  -47.6378 H         1 UNK         0.0892 
     70 H70        33.2317  -46.2134  -49.6153 H         1 UNK         0.3107 
     71 H71        35.0391  -44.9604  -51.5346 H         1 UNK         0.0773 
     72 H72        32.0185  -44.6366  -51.6892 H         1 UNK         0.0680 
     73 H73        32.8282  -43.9830  -50.3156 H         1 UNK         0.0680 
     74 H74        33.6651  -42.3209  -54.5639 H         1 UNK         0.0650 
     75 H75        33.7926  -44.0311  -54.2525 H         1 UNK         0.0650 
     76 H76        30.8179  -42.9989  -52.5297 H         1 UNK         0.1397 
     77 H77        28.1864  -44.0714  -55.7122 H         1 UNK         0.1363 
     78 H78        32.3778  -43.6719  -56.4804 H         1 UNK         0.1355 
     79 H79        30.8712  -44.7937  -58.0931 H         1 UNK         0.0707 
     80 H80        29.1609  -44.9084  -57.8015 H         1 UNK         0.0707 
     81 H81        28.1359  -41.1058  -58.2657 H         1 UNK         0.1034 
     82 H82        27.8742  -42.4966  -57.2909 H         1 UNK         0.1034 
     83 H83        25.9993  -42.2560  -58.8103 H         1 UNK         0.0482 
     84 H84        26.7735  -40.1150  -59.9570 H         1 UNK         0.3460 
     85 H85        26.9396  -40.2797  -61.6844 H         1 UNK         0.3460 
     86 H86        26.9647  -44.4792  -60.2313 H         1 UNK         0.2989 
     87 H87        25.1802  -46.5028  -59.1904 H         1 UNK         0.0559 
     88 H88        27.1389  -47.9633  -59.8511 H         1 UNK         0.0848 
     89 H89        28.2365  -46.7049  -59.3022 H         1 UNK         0.0848 
     90 H90        27.1505  -46.4125  -60.6592 H         1 UNK         0.0848 
     91 H91        27.1227  -47.2885  -57.0597 H         1 UNK         0.3144 
     92 H92        25.8566  -47.7609  -54.8524 H         1 UNK         0.0727 
     93 H93        24.4511  -49.6086  -53.9568 H         1 UNK         0.0790 
     94 H94        23.7374  -49.8568  -55.5501 H         1 UNK         0.0790 
     95 H95        23.4611  -48.3534  -54.6826 H         1 UNK         0.0790 
     96 H96        27.3029  -49.4325  -55.0784 H         1 UNK         0.3215 
     97 H97        27.7443  -51.9632  -55.5756 H         1 UNK         0.0863 
     98 H98        28.6826  -53.1467  -57.5704 H         1 UNK         0.0808 
     99 H99        27.7772  -52.0754  -58.6397 H         1 UNK         0.0808 
    100 H100       26.9267  -53.1736  -57.5654 H         1 UNK         0.0808 
    101 H101       29.5889  -50.7772  -55.6952 H         1 UNK         0.3118 
    102 H102       31.5170  -49.7015  -56.9563 H         1 UNK         0.0546 
    103 H103       30.3474  -47.2562  -58.3836 H         1 UNK         0.0828 
    104 H104       31.3424  -48.5014  -59.1190 H         1 UNK         0.0828 
    105 H105       32.0284  -47.4456  -57.8939 H         1 UNK         0.0828 
    106 H106       31.1691  -48.5675  -55.0707 H         1 UNK         0.3005 
    107 H107       30.2404  -46.1567  -53.9767 H         1 UNK         0.1257 
    108 H108       27.6058  -45.9046  -54.3341 H         1 UNK         0.0775 
    109 H109       27.4722  -47.2160  -53.2140 H         1 UNK         0.0775 
    110 H110       27.2859  -43.5268  -53.5243 H         1 UNK         0.0840 
    111 H111       28.3129  -42.8254  -52.2971 H         1 UNK         0.0840 
    112 H112       30.9666  -47.7546  -52.6814 H         1 UNK         0.2987 
    113 H113       30.6654  -49.5966  -51.0946 H         1 UNK         0.0785 
    114 H114       30.2226  -52.0372  -50.8952 H         1 UNK         0.0798 
    115 H115       29.3031  -52.0184  -52.3987 H         1 UNK         0.0798 
    116 H116       28.7172  -51.1375  -50.9975 H         1 UNK         0.0798 
    117 H117       32.5029  -50.2202  -52.2112 H         1 UNK         0.3079 
    118 H118       33.7734  -51.8581  -53.5634 H         1 UNK         0.0794 
    119 H119       32.8136  -53.2147  -55.4181 H         1 UNK         0.0786 
    120 H120       34.3082  -52.4391  -55.9124 H         1 UNK         0.0786 
    121 H121       32.7586  -51.7998  -56.4583 H         1 UNK         0.0786 
    122 H122       33.8696  -49.7812  -55.6247 H         1 UNK         0.3032 
    123 H123       35.9815  -48.0518  -54.4728 H         1 UNK         0.1094 
    124 H124       34.3898  -48.0258  -56.3638 H         1 UNK         0.0794 
    125 H125       33.1521  -47.2556  -55.3737 H         1 UNK         0.0794 
    126 H126       34.6180  -46.3877  -55.7993 H         1 UNK         0.0794 
    127 H127       35.7992  -46.5434  -52.8577 H         1 UNK         0.3016 
@<TRIPOS>BOND
     1    1    2 1    
     2    1   67 1    
     3    1   68 1    
     4    1   69 1    
     5    2    3 2    
     6    2    4 am   BACKBONE|DICT|INTERRES
     7    4    5 1    
     8    4   70 1    
     9    5    6 1    
    10    5   65 1    
    11    5   71 1    
    12    6    7 1    
    13    6   72 1    
    14    6   73 1    
    15    7    8 1    
    16    8    9 1    
    17    8   74 1    
    18    8   75 1    
    19    9   10 ar   
    20    9   14 ar   
    21   10   11 ar   
    22   10   76 1    
    23   11   12 ar   
    24   11   48 1    
    25   12   13 ar   
    26   12   77 1    
    27   13   14 ar   
    28   13   15 1    
    29   14   78 1    
    30   15   16 1    
    31   15   79 1    
    32   15   80 1    
    33   16   17 1    
    34   17   18 1    
    35   17   81 1    
    36   17   82 1    
    37   18   19 1    
    38   18   22 1    
    39   18   83 1    
    40   19   20 am   BACKBONE|DICT|INTERRES
    41   19   21 2    
    42   20   84 1    
    43   20   85 1    
    44   22   23 am   BACKBONE|DICT|INTERRES
    45   22   86 1    
    46   23   24 2    
    47   23   25 1    
    48   25   26 1    
    49   25   27 1    
    50   25   87 1    
    51   26   88 1    
    52   26   89 1    
    53   26   90 1    
    54   27   28 am   BACKBONE|DICT|INTERRES
    55   27   91 1    
    56   28   29 2    
    57   28   30 1    
    58   30   31 1    
    59   30   32 1    
    60   30   92 1    
    61   31   93 1    
    62   31   94 1    
    63   31   95 1    
    64   32   33 am   BACKBONE|DICT|INTERRES
    65   32   96 1    
    66   33   34 2    
    67   33   35 1    
    68   35   36 1    
    69   35   37 1    
    70   35   97 1    
    71   36   98 1    
    72   36   99 1    
    73   36  100 1    
    74   37   38 am   BACKBONE|DICT|INTERRES
    75   37  101 1    
    76   38   39 2    
    77   38   40 1    
    78   40   41 1    
    79   40   42 1    
    80   40  102 1    
    81   41  103 1    
    82   41  104 1    
    83   41  105 1    
    84   42   43 am   BACKBONE|DICT|INTERRES
    85   42  106 1    
    86   43   44 2    
    87   43   45 1    
    88   45   46 1    
    89   45   49 1    
    90   45  107 1    
    91   46   47 1    
    92   46  108 1    
    93   46  109 1    
    94   47   48 1    
    95   48  110 1    
    96   48  111 1    
    97   49   50 am   BACKBONE|DICT|INTERRES
    98   49  112 1    
    99   50   51 2    
   100   50   52 1    
   101   52   53 1    
   102   52   54 1    
   103   52  113 1    
   104   53  114 1    
   105   53  115 1    
   106   53  116 1    
   107   54   55 am   BACKBONE|DICT|INTERRES
   108   54  117 1    
   109   55   56 2    
   110   55   57 1    
   111   57   58 1    
   112   57   59 1    
   113   57  118 1    
   114   58  119 1    
   115   58  120 1    
   116   58  121 1    
   117   59   60 am   BACKBONE|DICT|INTERRES
   118   59  122 1    
   119   60   61 2    
   120   60   62 1    
   121   62   63 1    
   122   62   64 1    
   123   62  123 1    
   124   63  124 1    
   125   63  125 1    
   126   63  126 1    
   127   64   65 am   BACKBONE|DICT|INTERRES
   128   64  127 1    
   129   65   66 2    
@<TRIPOS>SUBSTRUCTURE
     1 UNK         1 GROUP             0       ****    0 ROOT    
