@<TRIPOS>MOLECULE
3R134
127   129    1
SMALL
USER_CHARGES


@<TRIPOS>ATOM
      1 CA         37.2636  -45.2322  -52.4405 C.3       0 UNK        -0.1968 
      2 C          35.8040  -45.6295  -52.5965 C.2       0 UNK         0.4852 
      3 O          35.5156  -46.7215  -53.0827 O.2       0 UNK        -0.5359 
      4 N          34.8767  -44.7645  -52.1655 N.am      1 UNK        -0.4300 
      5 CA         33.4201  -44.9305  -52.3033 C.3       1 UNK         0.0863 
      6 C6         32.6591  -43.6133  -52.0000 C.3       11 UNK        -0.0953 
      7 S7         33.2813  -42.1995  -52.9757 S.3       11 UNK        -0.2369 
      8 C8         31.9339  -41.9221  -54.1757 C.3       11 UNK         0.0226 
      9 C9         31.6598  -43.1017  -55.1070 C.ar      11 UNK        -0.0699 
     10 C10        32.7009  -43.8617  -55.6538 C.ar      11 UNK        -0.0804 
     11 C11        32.4298  -44.9358  -56.5067 C.ar      11 UNK        -0.0871 
     12 C12        31.1043  -45.2209  -56.8431 C.ar      11 UNK        -0.1008 
     13 C13        30.0491  -44.4815  -56.3017 C.ar      11 UNK        -0.0735 
     14 C14        30.3389  -43.4150  -55.4429 C.ar      11 UNK        -0.0945 
     15 C15        28.6129  -44.8498  -56.6689 C.3       11 UNK         0.0169 
     16 S16        27.4579  -44.7783  -55.2583 S.3       11 UNK        -0.2669 
     17 C17        26.6288  -43.1743  -55.5244 C.3       11 UNK        -0.0850 
     18 CA         25.0952  -43.3269  -55.7012 C.3       10 UNK         0.0855 
     19 C          24.4099  -41.9319  -55.7957 C.2       10 UNK         0.5543 
     20 N          23.7637  -41.5790  -56.9006 N.am      10 UNK        -0.7343 
     21 O          24.4627  -41.1572  -54.8437 O.2       10 UNK        -0.5027 
     22 N          24.7464  -44.2586  -56.7896 N.am      10 UNK        -0.4495 
     23 C          23.5733  -44.8882  -56.9111 C.2       10 UNK         0.4903 
     24 O          22.6587  -44.7858  -56.0927 O.2       10 UNK        -0.4860 
     25 CA         23.3566  -45.7748  -58.1517 C.3       9 UNK         0.0227 
     26 CB         22.8958  -44.9263  -59.3530 C.3       9 UNK        -0.1964 
     27 N          24.4752  -46.6549  -58.5213 N.am      9 UNK        -0.4231 
     28 C          25.7010  -46.3468  -58.9642 C.2       9 UNK         0.5014 
     29 O          26.1326  -45.1947  -59.0439 O.2       9 UNK        -0.5270 
     30 CA         26.5792  -47.5367  -59.4055 C.3       8 UNK         0.0284 
     31 CB         27.9125  -47.0869  -60.0329 C.3       8 UNK        -0.1977 
     32 N          26.8500  -48.4885  -58.3217 N.am      8 UNK        -0.4342 
     33 C          25.9709  -49.3737  -57.8246 C.2       8 UNK         0.5039 
     34 O          24.8066  -49.4565  -58.2211 O.2       8 UNK        -0.5547 
     35 CA         26.4426  -50.3323  -56.7112 C.3       7 UNK         0.0281 
     36 CB         26.7357  -51.7244  -57.2933 C.3       7 UNK        -0.1963 
     37 N          27.6262  -49.8632  -55.9912 N.am      7 UNK        -0.4444 
     38 C          27.6599  -48.7934  -55.1853 C.2       7 UNK         0.5104 
     39 O          26.6511  -48.1785  -54.8406 O.2       7 UNK        -0.5100 
     40 CA         29.0423  -48.3178  -54.6890 C.3       6 UNK         0.0396 
     41 CB         29.2036  -48.6536  -53.1989 C.3       6 UNK        -0.1801 
     42 N          30.2007  -48.8471  -55.4241 N.am      6 UNK        -0.4747 
     43 C          30.4163  -48.7627  -56.7487 C.2       6 UNK         0.5012 
     44 O          29.6284  -48.2293  -57.5287 O.2       6 UNK        -0.5003 
     45 CA         31.6796  -49.4374  -57.3276 C.3       5 UNK         0.0782 
     46 C46        32.7412  -48.4034  -57.7820 C.3       11 UNK        -0.0868 
     47 S47        33.5567  -47.4859  -56.4240 S.3       11 UNK        -0.2515 
     48 C48        33.5699  -45.7768  -57.0689 C.3       11 UNK         0.0199 
     49 N          32.2424  -50.4699  -56.4523 N.am      5 UNK        -0.4607 
     50 C          31.6130  -51.5970  -56.0899 C.2       4 UNK         0.5031 
     51 O          30.5242  -51.9405  -56.5527 O.2       4 UNK        -0.5119 
     52 CA         32.2746  -52.4738  -55.0073 C.3       4 UNK         0.0263 
     53 CB         32.8493  -53.7534  -55.6369 C.3       4 UNK        -0.1967 
     54 N          33.3241  -51.8211  -54.2108 N.am      4 UNK        -0.4237 
     55 C          33.1871  -50.7078  -53.4752 C.2       3 UNK         0.4908 
     56 O          32.1475  -50.0469  -53.4274 O.2       3 UNK        -0.5102 
     57 CA         34.4463  -50.2520  -52.7141 C.3       3 UNK         0.0241 
     58 CB         35.5665  -49.8609  -53.6949 C.3       3 UNK        -0.1971 
     59 N          34.1870  -49.1230  -51.8157 N.am      3 UNK        -0.4139 
     60 C          33.5175  -49.2074  -50.6550 C.2       2 UNK         0.5016 
     61 O          33.0924  -50.2686  -50.1940 O.2       2 UNK        -0.5319 
     62 CA         33.3060  -47.9136  -49.8407 C.3       2 UNK         0.0286 
     63 CB         34.1467  -47.9430  -48.5528 C.3       2 UNK        -0.1963 
     64 N          33.6344  -46.6961  -50.5850 N.am      2 UNK        -0.4790 
     65 C          32.8356  -46.1059  -51.4855 C.2       1 UNK         0.5024 
     66 O          31.6755  -46.4607  -51.6886 O.2       1 UNK        -0.4888 
     67 H67        37.7850  -45.9572  -51.8161 H         1 UNK         0.0892 
     68 H68        37.7501  -45.2097  -53.4152 H         1 UNK         0.0892 
     69 H69        37.3726  -44.2486  -51.9840 H         1 UNK         0.0892 
     70 H70        35.1696  -43.8812  -51.7720 H         1 UNK         0.3107 
     71 H71        33.2332  -45.1920  -53.3458 H         1 UNK         0.0773 
     72 H72        32.7504  -43.3564  -50.9431 H         1 UNK         0.0680 
     73 H73        31.5909  -43.7341  -52.1915 H         1 UNK         0.0680 
     74 H74        32.1873  -41.0541  -54.7854 H         1 UNK         0.0650 
     75 H75        31.0333  -41.6558  -53.6200 H         1 UNK         0.0650 
     76 H76        33.7256  -43.6233  -55.4041 H         1 UNK         0.1397 
     77 H77        30.8934  -46.0309  -57.5241 H         1 UNK         0.1363 
     78 H78        29.5318  -42.8263  -55.0304 H         1 UNK         0.1355 
     79 H79        28.5792  -45.8715  -57.0455 H         1 UNK         0.0707 
     80 H80        28.2717  -44.2185  -57.4895 H         1 UNK         0.0707 
     81 H81        26.8492  -42.5471  -54.6584 H         1 UNK         0.1034 
     82 H82        27.0610  -42.6578  -56.3829 H         1 UNK         0.1034 
     83 H83        24.7173  -43.7699  -54.7775 H         1 UNK         0.0482 
     84 H84        23.7181  -42.2086  -57.6852 H         1 UNK         0.3460 
     85 H85        23.3209  -40.6749  -56.9488 H         1 UNK         0.3460 
     86 H86        25.4413  -44.4080  -57.5173 H         1 UNK         0.2989 
     87 H87        22.5371  -46.4513  -57.9037 H         1 UNK         0.0559 
     88 H88        23.6669  -44.2285  -59.6810 H         1 UNK         0.0848 
     89 H89        22.0130  -44.3378  -59.0993 H         1 UNK         0.0848 
     90 H90        22.6307  -45.5547  -60.2032 H         1 UNK         0.0848 
     91 H91        24.2874  -47.6528  -58.4349 H         1 UNK         0.3144 
     92 H92        26.0228  -48.0639  -60.1835 H         1 UNK         0.0727 
     93 H93        27.7394  -46.4420  -60.8953 H         1 UNK         0.0790 
     94 H94        28.5260  -46.5263  -59.3279 H         1 UNK         0.0790 
     95 H95        28.4970  -47.9396  -60.3787 H         1 UNK         0.0790 
     96 H96        27.7902  -48.4602  -57.9323 H         1 UNK         0.3215 
     97 H97        25.6244  -50.4244  -55.9936 H         1 UNK         0.0863 
     98 H98        27.5624  -51.6984  -58.0047 H         1 UNK         0.0808 
     99 H99        25.8651  -52.1204  -57.8182 H         1 UNK         0.0808 
    100 H100       26.9915  -52.4373  -56.5090 H         1 UNK         0.0808 
    101 H101       28.5024  -50.3216  -56.2034 H         1 UNK         0.3118 
    102 H102       29.0704  -47.2331  -54.7975 H         1 UNK         0.0546 
    103 H103       28.3925  -48.2255  -52.6084 H         1 UNK         0.0828 
    104 H104       30.1357  -48.2535  -52.8024 H         1 UNK         0.0828 
    105 H105       29.2049  -49.7306  -53.0269 H         1 UNK         0.0828 
    106 H106       30.9124  -49.2979  -54.8550 H         1 UNK         0.3005 
    107 H107       31.3387  -49.9545  -58.2278 H         1 UNK         0.1257 
    108 H108       32.2946  -47.7041  -58.4906 H         1 UNK         0.0775 
    109 H109       33.5237  -48.9159  -58.3435 H         1 UNK         0.0775 
    110 H110       34.5303  -45.3300  -56.8073 H         1 UNK         0.0840 
    111 H111       33.5305  -45.7741  -58.1588 H         1 UNK         0.0840 
    112 H112       33.1207  -50.2430  -56.0098 H         1 UNK         0.2987 
    113 H113       31.4816  -52.7617  -54.3141 H         1 UNK         0.0785 
    114 H114       33.6726  -53.5329  -56.3176 H         1 UNK         0.0798 
    115 H115       32.0875  -54.2850  -56.2093 H         1 UNK         0.0798 
    116 H116       33.2157  -54.4425  -54.8758 H         1 UNK         0.0798 
    117 H117       34.2206  -52.2864  -54.2026 H         1 UNK         0.3079 
    118 H118       34.7936  -51.0923  -52.1091 H         1 UNK         0.0794 
    119 H119       35.2466  -49.0697  -54.3740 H         1 UNK         0.0786 
    120 H120       35.8816  -50.7071  -54.3060 H         1 UNK         0.0786 
    121 H121       36.4501  -49.5043  -53.1651 H         1 UNK         0.0786 
    122 H122       34.4924  -48.2122  -52.1448 H         1 UNK         0.3032 
    123 H123       32.2505  -47.8817  -49.5599 H         1 UNK         0.1094 
    124 H124       33.9608  -47.0629  -47.9369 H         1 UNK         0.0794 
    125 H125       33.9030  -48.8166  -47.9464 H         1 UNK         0.0794 
    126 H126       35.2151  -47.9844  -48.7684 H         1 UNK         0.0794 
    127 H127       34.5725  -46.3372  -50.4810 H         1 UNK         0.3016 
@<TRIPOS>BOND
     1    1    2 1    
     2    1   67 1    
     3    1   68 1    
     4    1   69 1    
     5    2    3 2    
     6    2    4 am   BACKBONE|DICT|INTERRES
     7    4    5 1    
     8    4   70 1    
     9    5    6 1    
    10    5   65 1    
    11    5   71 1    
    12    6    7 1    
    13    6   72 1    
    14    6   73 1    
    15    7    8 1    
    16    8    9 1    
    17    8   74 1    
    18    8   75 1    
    19    9   10 ar   
    20    9   14 ar   
    21   10   11 ar   
    22   10   76 1    
    23   11   12 ar   
    24   11   48 1    
    25   12   13 ar   
    26   12   77 1    
    27   13   14 ar   
    28   13   15 1    
    29   14   78 1    
    30   15   16 1    
    31   15   79 1    
    32   15   80 1    
    33   16   17 1    
    34   17   18 1    
    35   17   81 1    
    36   17   82 1    
    37   18   19 1    
    38   18   22 1    
    39   18   83 1    
    40   19   20 am   BACKBONE|DICT|INTERRES
    41   19   21 2    
    42   20   84 1    
    43   20   85 1    
    44   22   23 am   BACKBONE|DICT|INTERRES
    45   22   86 1    
    46   23   24 2    
    47   23   25 1    
    48   25   26 1    
    49   25   27 1    
    50   25   87 1    
    51   26   88 1    
    52   26   89 1    
    53   26   90 1    
    54   27   28 am   BACKBONE|DICT|INTERRES
    55   27   91 1    
    56   28   29 2    
    57   28   30 1    
    58   30   31 1    
    59   30   32 1    
    60   30   92 1    
    61   31   93 1    
    62   31   94 1    
    63   31   95 1    
    64   32   33 am   BACKBONE|DICT|INTERRES
    65   32   96 1    
    66   33   34 2    
    67   33   35 1    
    68   35   36 1    
    69   35   37 1    
    70   35   97 1    
    71   36   98 1    
    72   36   99 1    
    73   36  100 1    
    74   37   38 am   BACKBONE|DICT|INTERRES
    75   37  101 1    
    76   38   39 2    
    77   38   40 1    
    78   40   41 1    
    79   40   42 1    
    80   40  102 1    
    81   41  103 1    
    82   41  104 1    
    83   41  105 1    
    84   42   43 am   BACKBONE|DICT|INTERRES
    85   42  106 1    
    86   43   44 2    
    87   43   45 1    
    88   45   46 1    
    89   45   49 1    
    90   45  107 1    
    91   46   47 1    
    92   46  108 1    
    93   46  109 1    
    94   47   48 1    
    95   48  110 1    
    96   48  111 1    
    97   49   50 am   BACKBONE|DICT|INTERRES
    98   49  112 1    
    99   50   51 2    
   100   50   52 1    
   101   52   53 1    
   102   52   54 1    
   103   52  113 1    
   104   53  114 1    
   105   53  115 1    
   106   53  116 1    
   107   54   55 am   BACKBONE|DICT|INTERRES
   108   54  117 1    
   109   55   56 2    
   110   55   57 1    
   111   57   58 1    
   112   57   59 1    
   113   57  118 1    
   114   58  119 1    
   115   58  120 1    
   116   58  121 1    
   117   59   60 am   BACKBONE|DICT|INTERRES
   118   59  122 1    
   119   60   61 2    
   120   60   62 1    
   121   62   63 1    
   122   62   64 1    
   123   62  123 1    
   124   63  124 1    
   125   63  125 1    
   126   63  126 1    
   127   64   65 am   BACKBONE|DICT|INTERRES
   128   64  127 1    
   129   65   66 2    
@<TRIPOS>SUBSTRUCTURE
     1 UNK         1 GROUP             0       ****    0 ROOT    
