@<TRIPOS>MOLECULE
3R134
127   129    1
SMALL
USER_CHARGES


@<TRIPOS>ATOM
      1 CA         29.9304  -43.7337  -52.7576 C.3       0 UNK        -0.1968 
      2 C          31.0871  -43.7113  -51.7667 C.2       0 UNK         0.4852 
      3 O          30.9229  -43.2335  -50.6430 O.2       0 UNK        -0.5359 
      4 N          32.2536  -44.2222  -52.1791 N.am      1 UNK        -0.4300 
      5 CA         33.4452  -44.4086  -51.3458 C.3       1 UNK         0.0863 
      6 C6         34.7403  -44.3891  -52.2047 C.3       11 UNK        -0.0953 
      7 S7         34.7454  -45.6065  -53.5688 S.3       11 UNK        -0.2369 
      8 C8         34.5586  -44.5429  -55.0330 C.3       11 UNK         0.0226 
      9 C9         33.6144  -45.1491  -56.0620 C.ar      11 UNK        -0.0699 
     10 C10        34.0919  -46.0411  -57.0279 C.ar      11 UNK        -0.0804 
     11 C11        33.2448  -46.5195  -58.0343 C.ar      11 UNK        -0.0871 
     12 C12        31.9050  -46.1152  -58.0557 C.ar      11 UNK        -0.1008 
     13 C13        31.4143  -45.2358  -57.0869 C.ar      11 UNK        -0.0735 
     14 C14        32.2717  -44.7616  -56.0904 C.ar      11 UNK        -0.0945 
     15 C15        29.9851  -44.7220  -57.1623 C.3       11 UNK         0.0169 
     16 S16        28.8337  -45.7201  -56.1699 S.3       11 UNK        -0.2669 
     17 C17        27.4976  -44.4907  -55.9884 C.3       11 UNK        -0.0850 
     18 CA         26.2838  -44.9859  -55.1617 C.3       10 UNK         0.0855 
     19 C          25.3123  -43.8018  -54.8706 C.2       10 UNK         0.5543 
     20 N          24.0938  -43.7815  -55.4010 N.am      10 UNK        -0.7343 
     21 O          25.6747  -42.8824  -54.1409 O.2       10 UNK        -0.5027 
     22 N          25.6290  -46.1550  -55.7712 N.am      10 UNK        -0.4495 
     23 C          24.7889  -46.9637  -55.1058 C.2       10 UNK         0.4903 
     24 O          24.6237  -46.9049  -53.8864 O.2       10 UNK        -0.4860 
     25 CA         23.9931  -48.0108  -55.9152 C.3       9 UNK         0.0227 
     26 CB         22.5957  -48.2773  -55.3161 C.3       9 UNK        -0.1964 
     27 N          23.8925  -47.7174  -57.3497 N.am      9 UNK        -0.4231 
     28 C          23.3369  -46.6419  -57.9330 C.2       9 UNK         0.5014 
     29 O          22.7730  -45.7403  -57.3093 O.2       9 UNK        -0.5270 
     30 CA         23.4968  -46.5417  -59.4679 C.3       8 UNK         0.0284 
     31 CB         23.2756  -45.1092  -59.9993 C.3       8 UNK        -0.1977 
     32 N          24.7834  -47.0814  -59.9382 N.am      8 UNK        -0.4342 
     33 C          25.9992  -46.6882  -59.5311 C.2       8 UNK         0.5039 
     34 O          26.1998  -45.7343  -58.7786 O.2       8 UNK        -0.5547 
     35 CA         27.1828  -47.5837  -59.9255 C.3       7 UNK         0.0281 
     36 CB         28.2935  -46.7766  -60.6178 C.3       7 UNK        -0.1963 
     37 N          27.7222  -48.2192  -58.7221 N.am      7 UNK        -0.4444 
     38 C          27.0690  -49.1180  -57.9716 C.2       7 UNK         0.5104 
     39 O          25.9728  -49.5915  -58.2793 O.2       7 UNK        -0.5100 
     40 CA         27.7302  -49.5103  -56.6366 C.3       6 UNK         0.0396 
     41 CB         27.1980  -50.8416  -56.0648 C.3       6 UNK        -0.1801 
     42 N          29.1960  -49.5031  -56.6979 N.am      6 UNK        -0.4747 
     43 C          29.9908  -50.3077  -57.4237 C.2       6 UNK         0.5012 
     44 O          29.5734  -51.2087  -58.1518 O.2       6 UNK        -0.5003 
     45 CA         31.5115  -50.0502  -57.3466 C.3       5 UNK         0.0782 
     46 C46        32.0476  -49.5893  -58.7254 C.3       11 UNK        -0.0868 
     47 S47        33.8247  -49.1711  -58.6959 S.3       11 UNK        -0.2515 
     48 C48        33.7996  -47.4060  -59.1432 C.3       11 UNK         0.0199 
     49 N          31.8665  -49.1159  -56.2712 N.am      5 UNK        -0.4607 
     50 C          31.9444  -49.4441  -54.9775 C.2       4 UNK         0.5031 
     51 O          31.6961  -50.5665  -54.5316 O.2       4 UNK        -0.5119 
     52 CA         32.3000  -48.2970  -54.0225 C.3       4 UNK         0.0263 
     53 CB         31.0142  -47.6270  -53.5141 C.3       4 UNK        -0.1967 
     54 N          33.1073  -48.7248  -52.8774 N.am      4 UNK        -0.4237 
     55 C          34.3308  -49.2703  -52.9511 C.2       3 UNK         0.4908 
     56 O          34.9334  -49.4688  -54.0076 O.2       3 UNK        -0.5102 
     57 CA         35.0025  -49.6058  -51.6096 C.3       3 UNK         0.0241 
     58 CB         36.4718  -50.0469  -51.7577 C.3       3 UNK        -0.1971 
     59 N          34.9328  -48.4400  -50.7301 N.am      3 UNK        -0.4139 
     60 C          34.5278  -48.4483  -49.4543 C.2       2 UNK         0.5016 
     61 O          34.2234  -49.4709  -48.8389 O.2       2 UNK        -0.5319 
     62 CA         34.4337  -47.0864  -48.7349 C.3       2 UNK         0.0286 
     63 CB         35.6327  -46.8966  -47.7910 C.3       2 UNK        -0.1963 
     64 N          34.3411  -45.9229  -49.6286 N.am      2 UNK        -0.4790 
     65 C          33.3278  -45.6816  -50.4737 C.2       1 UNK         0.5024 
     66 O          32.3588  -46.4363  -50.5871 O.2       1 UNK        -0.4888 
     67 H67        29.6922  -42.7214  -53.0827 H         1 UNK         0.0892 
     68 H68        30.1584  -44.3316  -53.6395 H         1 UNK         0.0892 
     69 H69        29.0428  -44.1587  -52.2895 H         1 UNK         0.0892 
     70 H70        32.3211  -44.6352  -53.0969 H         1 UNK         0.3107 
     71 H71        33.5051  -43.5688  -50.6501 H         1 UNK         0.0773 
     72 H72        34.8850  -43.3873  -52.6106 H         1 UNK         0.0680 
     73 H73        35.6248  -44.5648  -51.5908 H         1 UNK         0.0680 
     74 H74        34.1898  -43.5577  -54.7449 H         1 UNK         0.0650 
     75 H75        35.5414  -44.3779  -55.4770 H         1 UNK         0.0650 
     76 H76        35.1331  -46.3342  -57.0172 H         1 UNK         0.1397 
     77 H77        31.2508  -46.4500  -58.8486 H         1 UNK         0.1363 
     78 H78        31.9015  -44.0526  -55.3637 H         1 UNK         0.1355 
     79 H79        29.6405  -44.7018  -58.1967 H         1 UNK         0.0707 
     80 H80        29.9623  -43.6863  -56.8195 H         1 UNK         0.0707 
     81 H81        27.1761  -44.1660  -56.9793 H         1 UNK         0.1034 
     82 H82        27.9338  -43.6098  -55.5127 H         1 UNK         0.1034 
     83 H83        26.6698  -45.2998  -54.1897 H         1 UNK         0.0482 
     84 H84        23.7728  -44.5263  -56.0102 H         1 UNK         0.3460 
     85 H85        23.4827  -43.0074  -55.1960 H         1 UNK         0.3460 
     86 H86        25.7127  -46.2243  -56.7795 H         1 UNK         0.2989 
     87 H87        24.5609  -48.9379  -55.8398 H         1 UNK         0.0559 
     88 H88        22.0534  -49.0280  -55.8907 H         1 UNK         0.0848 
     89 H89        21.9880  -47.3722  -55.2882 H         1 UNK         0.0848 
     90 H90        22.6701  -48.6487  -54.2933 H         1 UNK         0.0848 
     91 H91        24.3798  -48.3794  -57.9470 H         1 UNK         0.3144 
     92 H92        22.7193  -47.1770  -59.8947 H         1 UNK         0.0727 
     93 H93        23.3837  -45.0665  -61.0829 H         1 UNK         0.0790 
     94 H94        23.9821  -44.4019  -59.5633 H         1 UNK         0.0790 
     95 H95        22.2724  -44.7539  -59.7603 H         1 UNK         0.0790 
     96 H96        24.7215  -47.9010  -60.5280 H         1 UNK         0.3215 
     97 H97        26.8433  -48.3646  -60.6095 H         1 UNK         0.0863 
     98 H98        29.1334  -47.4131  -60.8968 H         1 UNK         0.0808 
     99 H99        28.6733  -45.9790  -59.9791 H         1 UNK         0.0808 
    100 H100       27.9218  -46.3107  -61.5313 H         1 UNK         0.0808 
    101 H101       28.5814  -47.8382  -58.3557 H         1 UNK         0.3118 
    102 H102       27.4590  -48.7240  -55.9306 H         1 UNK         0.0546 
    103 H103       27.3606  -51.6731  -56.7509 H         1 UNK         0.0828 
    104 H104       26.1257  -50.7885  -55.8756 H         1 UNK         0.0828 
    105 H105       27.6799  -51.0876  -55.1188 H         1 UNK         0.0828 
    106 H106       29.6507  -48.7913  -56.1436 H         1 UNK         0.3005 
    107 H107       31.9750  -51.0131  -57.1180 H         1 UNK         0.1257 
    108 H108       31.9125  -50.3837  -59.4620 H         1 UNK         0.0775 
    109 H109       31.4747  -48.7420  -59.1028 H         1 UNK         0.0775 
    110 H110       34.8185  -47.0950  -59.3793 H         1 UNK         0.0840 
    111 H111       33.2292  -47.2714  -60.0637 H         1 UNK         0.0840 
    112 H112       32.1138  -48.1792  -56.5625 H         1 UNK         0.2987 
    113 H113       32.8808  -47.5617  -54.5804 H         1 UNK         0.0785 
    114 H114       31.2330  -46.7422  -52.9210 H         1 UNK         0.0798 
    115 H115       30.4210  -48.3052  -52.8994 H         1 UNK         0.0798 
    116 H116       30.3855  -47.3053  -54.3427 H         1 UNK         0.0798 
    117 H117       32.7001  -48.5783  -51.9641 H         1 UNK         0.3079 
    118 H118       34.4376  -50.4375  -51.1831 H         1 UNK         0.0794 
    119 H119       36.5538  -50.9306  -52.3918 H         1 UNK         0.0786 
    120 H120       36.9071  -50.3012  -50.7912 H         1 UNK         0.0786 
    121 H121       37.0840  -49.2630  -52.2053 H         1 UNK         0.0786 
    122 H122       35.1370  -47.5480  -51.1596 H         1 UNK         0.3032 
    123 H123       33.5234  -47.1123  -48.1313 H         1 UNK         0.1094 
    124 H124       35.7139  -47.7287  -47.0898 H         1 UNK         0.0794 
    125 H125       36.5738  -46.8408  -48.3396 H         1 UNK         0.0794 
    126 H126       35.5328  -45.9871  -47.1982 H         1 UNK         0.0794 
    127 H127       35.1036  -45.2615  -49.5820 H         1 UNK         0.3016 
@<TRIPOS>BOND
     1    1    2 1    
     2    1   67 1    
     3    1   68 1    
     4    1   69 1    
     5    2    3 2    
     6    2    4 am   BACKBONE|DICT|INTERRES
     7    4    5 1    
     8    4   70 1    
     9    5    6 1    
    10    5   65 1    
    11    5   71 1    
    12    6    7 1    
    13    6   72 1    
    14    6   73 1    
    15    7    8 1    
    16    8    9 1    
    17    8   74 1    
    18    8   75 1    
    19    9   10 ar   
    20    9   14 ar   
    21   10   11 ar   
    22   10   76 1    
    23   11   12 ar   
    24   11   48 1    
    25   12   13 ar   
    26   12   77 1    
    27   13   14 ar   
    28   13   15 1    
    29   14   78 1    
    30   15   16 1    
    31   15   79 1    
    32   15   80 1    
    33   16   17 1    
    34   17   18 1    
    35   17   81 1    
    36   17   82 1    
    37   18   19 1    
    38   18   22 1    
    39   18   83 1    
    40   19   20 am   BACKBONE|DICT|INTERRES
    41   19   21 2    
    42   20   84 1    
    43   20   85 1    
    44   22   23 am   BACKBONE|DICT|INTERRES
    45   22   86 1    
    46   23   24 2    
    47   23   25 1    
    48   25   26 1    
    49   25   27 1    
    50   25   87 1    
    51   26   88 1    
    52   26   89 1    
    53   26   90 1    
    54   27   28 am   BACKBONE|DICT|INTERRES
    55   27   91 1    
    56   28   29 2    
    57   28   30 1    
    58   30   31 1    
    59   30   32 1    
    60   30   92 1    
    61   31   93 1    
    62   31   94 1    
    63   31   95 1    
    64   32   33 am   BACKBONE|DICT|INTERRES
    65   32   96 1    
    66   33   34 2    
    67   33   35 1    
    68   35   36 1    
    69   35   37 1    
    70   35   97 1    
    71   36   98 1    
    72   36   99 1    
    73   36  100 1    
    74   37   38 am   BACKBONE|DICT|INTERRES
    75   37  101 1    
    76   38   39 2    
    77   38   40 1    
    78   40   41 1    
    79   40   42 1    
    80   40  102 1    
    81   41  103 1    
    82   41  104 1    
    83   41  105 1    
    84   42   43 am   BACKBONE|DICT|INTERRES
    85   42  106 1    
    86   43   44 2    
    87   43   45 1    
    88   45   46 1    
    89   45   49 1    
    90   45  107 1    
    91   46   47 1    
    92   46  108 1    
    93   46  109 1    
    94   47   48 1    
    95   48  110 1    
    96   48  111 1    
    97   49   50 am   BACKBONE|DICT|INTERRES
    98   49  112 1    
    99   50   51 2    
   100   50   52 1    
   101   52   53 1    
   102   52   54 1    
   103   52  113 1    
   104   53  114 1    
   105   53  115 1    
   106   53  116 1    
   107   54   55 am   BACKBONE|DICT|INTERRES
   108   54  117 1    
   109   55   56 2    
   110   55   57 1    
   111   57   58 1    
   112   57   59 1    
   113   57  118 1    
   114   58  119 1    
   115   58  120 1    
   116   58  121 1    
   117   59   60 am   BACKBONE|DICT|INTERRES
   118   59  122 1    
   119   60   61 2    
   120   60   62 1    
   121   62   63 1    
   122   62   64 1    
   123   62  123 1    
   124   63  124 1    
   125   63  125 1    
   126   63  126 1    
   127   64   65 am   BACKBONE|DICT|INTERRES
   128   64  127 1    
   129   65   66 2    
@<TRIPOS>SUBSTRUCTURE
     1 UNK         1 GROUP             0       ****    0 ROOT    
