@<TRIPOS>MOLECULE
3R134
127   129    1
SMALL
USER_CHARGES


@<TRIPOS>ATOM
      1 CA         30.0704  -45.8278  -58.9864 C.3       0 UNK        -0.1968 
      2 C          31.4169  -46.0864  -58.3296 C.2       0 UNK         0.4852 
      3 O          32.4220  -46.2054  -59.0320 O.2       0 UNK        -0.5359 
      4 N          31.4321  -46.1771  -56.9917 N.am      1 UNK        -0.4300 
      5 CA         32.5995  -46.4510  -56.1384 C.3       1 UNK         0.0863 
      6 C6         33.7486  -45.3986  -56.2444 C.3       11 UNK        -0.0953 
      7 S7         33.2471  -43.6444  -56.2527 S.3       11 UNK        -0.2369 
      8 C8         33.5055  -43.1256  -54.5184 C.3       11 UNK         0.0226 
      9 C9         32.2711  -43.2566  -53.6270 C.ar      11 UNK        -0.0699 
     10 C10        32.4294  -43.4232  -52.2470 C.ar      11 UNK        -0.0804 
     11 C11        31.3152  -43.4893  -51.4031 C.ar      11 UNK        -0.0871 
     12 C12        30.0306  -43.4077  -51.9502 C.ar      11 UNK        -0.1008 
     13 C13        29.8552  -43.2588  -53.3279 C.ar      11 UNK        -0.0735 
     14 C14        30.9781  -43.1557  -54.1515 C.ar      11 UNK        -0.0945 
     15 C15        28.4559  -43.1968  -53.9243 C.3       11 UNK         0.0169 
     16 S16        28.2773  -44.3218  -55.3495 S.3       11 UNK        -0.2669 
     17 C17        28.1076  -43.1440  -56.7351 C.3       11 UNK        -0.0850 
     18 CA         26.6175  -42.8727  -57.1001 C.3       10 UNK         0.0855 
     19 C          26.4608  -41.7966  -58.2174 C.2       10 UNK         0.5543 
     20 N          25.4684  -41.8948  -59.0932 N.am      10 UNK        -0.7343 
     21 O          27.2274  -40.8379  -58.2718 O.2       10 UNK        -0.5027 
     22 N          25.8416  -44.1117  -57.3068 N.am      10 UNK        -0.4495 
     23 C          26.0794  -45.0390  -58.2424 C.2       10 UNK         0.4903 
     24 O          26.9131  -44.9088  -59.1383 O.2       10 UNK        -0.4860 
     25 CA         25.2116  -46.3060  -58.1538 C.3       9 UNK         0.0227 
     26 CB         24.0673  -46.2786  -59.1866 C.3       9 UNK        -0.1964 
     27 N          25.9935  -47.5482  -58.2244 N.am      9 UNK        -0.4231 
     28 C          26.6415  -48.0878  -59.2710 C.2       9 UNK         0.5014 
     29 O          26.6414  -47.6147  -60.4084 O.2       9 UNK        -0.5270 
     30 CA         27.3547  -49.4374  -59.0367 C.3       8 UNK         0.0284 
     31 CB         28.6846  -49.5567  -59.8108 C.3       8 UNK        -0.1977 
     32 N          27.5086  -49.8136  -57.6238 N.am      8 UNK        -0.4342 
     33 C          28.3052  -49.2563  -56.7011 C.2       8 UNK         0.5039 
     34 O          29.1243  -48.3602  -56.9180 O.2       8 UNK        -0.5547 
     35 CA         28.1520  -49.8083  -55.2770 C.3       7 UNK         0.0281 
     36 CB         29.3555  -50.6758  -54.8853 C.3       7 UNK        -0.1963 
     37 N          28.0010  -48.7245  -54.3102 N.am      7 UNK        -0.4444 
     38 C          26.9233  -47.9352  -54.2085 C.2       7 UNK         0.5104 
     39 O          25.9383  -48.0455  -54.9420 O.2       7 UNK        -0.5100 
     40 CA         26.9298  -46.8298  -53.1315 C.3       6 UNK         0.0396 
     41 CB         25.8086  -47.0451  -52.0943 C.3       6 UNK        -0.1801 
     42 N          28.2358  -46.5975  -52.4884 N.am      6 UNK        -0.4747 
     43 C          28.8767  -47.3851  -51.6118 C.2       6 UNK         0.5012 
     44 O          28.4231  -48.4458  -51.1773 O.2       6 UNK        -0.5003 
     45 CA         30.2717  -46.9160  -51.1549 C.3       5 UNK         0.0782 
     46 C46        30.1809  -46.1303  -49.8254 C.3       11 UNK        -0.0868 
     47 S47        31.7773  -45.3581  -49.3973 S.3       11 UNK        -0.2515 
     48 C48        31.4993  -43.6293  -49.8978 C.3       11 UNK         0.0199 
     49 N          31.1718  -48.0651  -51.0405 N.am      5 UNK        -0.4607 
     50 C          31.6493  -48.7548  -52.0794 C.2       4 UNK         0.5031 
     51 O          31.4686  -48.4374  -53.2587 O.2       4 UNK        -0.5119 
     52 CA         32.4375  -50.0227  -51.7373 C.3       4 UNK         0.0263 
     53 CB         31.4901  -51.1606  -51.3072 C.3       4 UNK        -0.1967 
     54 N          33.2016  -50.4142  -52.9141 N.am      4 UNK        -0.4237 
     55 C          34.2165  -51.2834  -52.9544 C.2       3 UNK         0.4908 
     56 O          34.6337  -51.8835  -51.9623 O.2       3 UNK        -0.5102 
     57 CA         34.9182  -51.4996  -54.3106 C.3       3 UNK         0.0241 
     58 CB         35.1622  -52.9947  -54.6083 C.3       3 UNK        -0.1971 
     59 N          34.2739  -50.8248  -55.4471 N.am      3 UNK        -0.4139 
     60 C          33.0974  -51.0984  -56.0277 C.2       2 UNK         0.5016 
     61 O          32.3387  -51.9981  -55.6653 O.2       2 UNK        -0.5319 
     62 CA         32.7063  -50.1822  -57.2031 C.3       2 UNK         0.0286 
     63 CB         31.6020  -50.7874  -58.0848 C.3       2 UNK        -0.1963 
     64 N          32.3030  -48.8363  -56.7745 N.am      2 UNK        -0.4790 
     65 C          33.1515  -47.8840  -56.3520 C.2       1 UNK         0.5024 
     66 O          34.3522  -48.1027  -56.1703 O.2       1 UNK        -0.4888 
     67 H67        29.2464  -45.9945  -58.2924 H         1 UNK         0.0892 
     68 H68        30.0144  -44.8004  -59.3441 H         1 UNK         0.0892 
     69 H69        29.9266  -46.4918  -59.8378 H         1 UNK         0.0892 
     70 H70        30.5509  -46.1160  -56.4990 H         1 UNK         0.3107 
     71 H71        32.2257  -46.4235  -55.1136 H         1 UNK         0.0773 
     72 H72        34.3087  -45.5532  -57.1686 H         1 UNK         0.0680 
     73 H73        34.4699  -45.5519  -55.4402 H         1 UNK         0.0680 
     74 H74        33.8005  -42.0758  -54.5237 H         1 UNK         0.0650 
     75 H75        34.3457  -43.6752  -54.0921 H         1 UNK         0.0650 
     76 H76        33.4230  -43.4848  -51.8237 H         1 UNK         0.1397 
     77 H77        29.1663  -43.4560  -51.3018 H         1 UNK         0.1363 
     78 H78        30.8325  -43.0035  -55.2111 H         1 UNK         0.1355 
     79 H79        28.2298  -42.1682  -54.2069 H         1 UNK         0.0707 
     80 H80        27.7100  -43.4763  -53.1787 H         1 UNK         0.0707 
     81 H81        28.6244  -42.2156  -56.4861 H         1 UNK         0.1034 
     82 H82        28.6399  -43.5499  -57.5958 H         1 UNK         0.1034 
     83 H83        26.1642  -42.4077  -56.2240 H         1 UNK         0.0482 
     84 H84        24.8351  -42.6770  -59.0566 H         1 UNK         0.3460 
     85 H85        25.3648  -41.1905  -59.8066 H         1 UNK         0.3460 
     86 H86        25.1136  -44.2820  -56.6283 H         1 UNK         0.2989 
     87 H87        24.7517  -46.3259  -57.1641 H         1 UNK         0.0559 
     88 H88        23.4128  -45.4228  -59.0174 H         1 UNK         0.0848 
     89 H89        23.4512  -47.1754  -59.1228 H         1 UNK         0.0848 
     90 H90        24.4404  -46.1985  -60.2081 H         1 UNK         0.0848 
     91 H91        26.0939  -48.0231  -57.3361 H         1 UNK         0.3144 
     92 H92        26.6806  -50.1843  -59.4586 H         1 UNK         0.0727 
     93 H93        29.1105  -50.5540  -59.7059 H         1 UNK         0.0790 
     94 H94        29.4230  -48.8337  -59.4666 H         1 UNK         0.0790 
     95 H95        28.5377  -49.3844  -60.8776 H         1 UNK         0.0790 
     96 H96        26.8864  -50.5499  -57.3173 H         1 UNK         0.3215 
     97 H97        27.2549  -50.4291  -55.2224 H         1 UNK         0.0863 
     98 H98        29.2524  -51.0617  -53.8719 H         1 UNK         0.0808 
     99 H99        30.2899  -50.1174  -54.9397 H         1 UNK         0.0808 
    100 H100       29.4519  -51.5360  -55.5487 H         1 UNK         0.0808 
    101 H101       28.7872  -48.5444  -53.7030 H         1 UNK         0.3118 
    102 H102       26.6865  -45.9057  -53.6534 H         1 UNK         0.0546 
    103 H103       24.8304  -47.0398  -52.5768 H         1 UNK         0.0828 
    104 H104       25.8024  -46.2547  -51.3441 H         1 UNK         0.0828 
    105 H105       25.9025  -48.0007  -51.5783 H         1 UNK         0.0828 
    106 H106       28.7128  -45.7667  -52.8136 H         1 UNK         0.3005 
    107 H107       30.6773  -46.2569  -51.9265 H         1 UNK         0.1257 
    108 H108       29.8883  -46.7922  -49.0080 H         1 UNK         0.0775 
    109 H109       29.4098  -45.3597  -49.8711 H         1 UNK         0.0775 
    110 H110       30.6354  -43.2295  -49.3642 H         1 UNK         0.0840 
    111 H111       32.3528  -43.0298  -49.5776 H         1 UNK         0.0840 
    112 H112       31.3473  -48.3977  -50.1040 H         1 UNK         0.2987 
    113 H113       33.1311  -49.7906  -50.9264 H         1 UNK         0.0785 
    114 H114       32.0441  -52.0451  -50.9931 H         1 UNK         0.0798 
    115 H115       30.8260  -51.4564  -52.1192 H         1 UNK         0.0798 
    116 H116       30.8639  -50.8603  -50.4662 H         1 UNK         0.0798 
    117 H117       32.9207  -49.9342  -53.7606 H         1 UNK         0.3079 
    118 H118       35.8961  -51.0265  -54.2098 H         1 UNK         0.0794 
    119 H119       35.7830  -53.4512  -53.8364 H         1 UNK         0.0786 
    120 H120       35.6779  -53.1318  -55.5587 H         1 UNK         0.0786 
    121 H121       34.2300  -53.5590  -54.6465 H         1 UNK         0.0786 
    122 H122       34.7440  -49.9846  -55.7742 H         1 UNK         0.3032 
    123 H123       33.5929  -50.0853  -57.8346 H         1 UNK         0.1094 
    124 H124       31.4505  -50.1887  -58.9824 H         1 UNK         0.0794 
    125 H125       31.8676  -51.7940  -58.4107 H         1 UNK         0.0794 
    126 H126       30.6513  -50.8562  -57.5585 H         1 UNK         0.0794 
    127 H127       31.3209  -48.5986  -56.8735 H         1 UNK         0.3016 
@<TRIPOS>BOND
     1    1    2 1    
     2    1   67 1    
     3    1   68 1    
     4    1   69 1    
     5    2    3 2    
     6    2    4 am   BACKBONE|DICT|INTERRES
     7    4    5 1    
     8    4   70 1    
     9    5    6 1    
    10    5   65 1    
    11    5   71 1    
    12    6    7 1    
    13    6   72 1    
    14    6   73 1    
    15    7    8 1    
    16    8    9 1    
    17    8   74 1    
    18    8   75 1    
    19    9   10 ar   
    20    9   14 ar   
    21   10   11 ar   
    22   10   76 1    
    23   11   12 ar   
    24   11   48 1    
    25   12   13 ar   
    26   12   77 1    
    27   13   14 ar   
    28   13   15 1    
    29   14   78 1    
    30   15   16 1    
    31   15   79 1    
    32   15   80 1    
    33   16   17 1    
    34   17   18 1    
    35   17   81 1    
    36   17   82 1    
    37   18   19 1    
    38   18   22 1    
    39   18   83 1    
    40   19   20 am   BACKBONE|DICT|INTERRES
    41   19   21 2    
    42   20   84 1    
    43   20   85 1    
    44   22   23 am   BACKBONE|DICT|INTERRES
    45   22   86 1    
    46   23   24 2    
    47   23   25 1    
    48   25   26 1    
    49   25   27 1    
    50   25   87 1    
    51   26   88 1    
    52   26   89 1    
    53   26   90 1    
    54   27   28 am   BACKBONE|DICT|INTERRES
    55   27   91 1    
    56   28   29 2    
    57   28   30 1    
    58   30   31 1    
    59   30   32 1    
    60   30   92 1    
    61   31   93 1    
    62   31   94 1    
    63   31   95 1    
    64   32   33 am   BACKBONE|DICT|INTERRES
    65   32   96 1    
    66   33   34 2    
    67   33   35 1    
    68   35   36 1    
    69   35   37 1    
    70   35   97 1    
    71   36   98 1    
    72   36   99 1    
    73   36  100 1    
    74   37   38 am   BACKBONE|DICT|INTERRES
    75   37  101 1    
    76   38   39 2    
    77   38   40 1    
    78   40   41 1    
    79   40   42 1    
    80   40  102 1    
    81   41  103 1    
    82   41  104 1    
    83   41  105 1    
    84   42   43 am   BACKBONE|DICT|INTERRES
    85   42  106 1    
    86   43   44 2    
    87   43   45 1    
    88   45   46 1    
    89   45   49 1    
    90   45  107 1    
    91   46   47 1    
    92   46  108 1    
    93   46  109 1    
    94   47   48 1    
    95   48  110 1    
    96   48  111 1    
    97   49   50 am   BACKBONE|DICT|INTERRES
    98   49  112 1    
    99   50   51 2    
   100   50   52 1    
   101   52   53 1    
   102   52   54 1    
   103   52  113 1    
   104   53  114 1    
   105   53  115 1    
   106   53  116 1    
   107   54   55 am   BACKBONE|DICT|INTERRES
   108   54  117 1    
   109   55   56 2    
   110   55   57 1    
   111   57   58 1    
   112   57   59 1    
   113   57  118 1    
   114   58  119 1    
   115   58  120 1    
   116   58  121 1    
   117   59   60 am   BACKBONE|DICT|INTERRES
   118   59  122 1    
   119   60   61 2    
   120   60   62 1    
   121   62   63 1    
   122   62   64 1    
   123   62  123 1    
   124   63  124 1    
   125   63  125 1    
   126   63  126 1    
   127   64   65 am   BACKBONE|DICT|INTERRES
   128   64  127 1    
   129   65   66 2    
@<TRIPOS>SUBSTRUCTURE
     1 UNK         1 GROUP             0       ****    0 ROOT    
