@<TRIPOS>MOLECULE
3R134
127   129    1
SMALL
USER_CHARGES


@<TRIPOS>ATOM
      1 CA         37.5552  -47.1381  -53.0234 C.3       0 UNK        -0.1968 
      2 C          36.7289  -45.9523  -52.5326 C.2       0 UNK         0.4852 
      3 O          36.8515  -45.5757  -51.3679 O.2       0 UNK        -0.5359 
      4 N          35.8978  -45.3184  -53.3709 N.am      1 UNK        -0.4300 
      5 CA         35.5572  -45.6887  -54.7482 C.3       1 UNK         0.0863 
      6 C6         34.9198  -44.5065  -55.5315 C.3       11 UNK        -0.0953 
      7 S7         33.6808  -43.5301  -54.6058 S.3       11 UNK        -0.2369 
      8 C8         32.1236  -44.2566  -55.1952 C.3       11 UNK         0.0226 
      9 C9         30.9270  -43.5954  -54.5301 C.ar      11 UNK        -0.0699 
     10 C10        30.5974  -43.9151  -53.2091 C.ar      11 UNK        -0.0804 
     11 C11        29.5007  -43.3126  -52.5821 C.ar      11 UNK        -0.0871 
     12 C12        28.7340  -42.3853  -53.2938 C.ar      11 UNK        -0.1008 
     13 C13        29.0601  -42.0472  -54.6104 C.ar      11 UNK        -0.0735 
     14 C14        30.1576  -42.6574  -55.2255 C.ar      11 UNK        -0.0945 
     15 C15        28.2454  -40.9897  -55.3412 C.3       11 UNK         0.0169 
     16 S16        26.8339  -41.7144  -56.2304 S.3       11 UNK        -0.2669 
     17 C17        27.5742  -42.0057  -57.8715 C.3       11 UNK        -0.0850 
     18 CA         26.6750  -42.8744  -58.7871 C.3       10 UNK         0.0855 
     19 C          27.2355  -42.8952  -60.2412 C.2       10 UNK         0.5543 
     20 N          27.7002  -44.0205  -60.7716 N.am      10 UNK        -0.7343 
     21 O          27.2452  -41.8608  -60.9038 O.2       10 UNK        -0.5027 
     22 N          26.4380  -44.2009  -58.1985 N.am      10 UNK        -0.4495 
     23 C          25.4957  -45.0657  -58.5932 C.2       10 UNK         0.4903 
     24 O          24.6260  -44.7957  -59.4233 O.2       10 UNK        -0.4860 
     25 CA         25.5475  -46.4725  -57.9597 C.3       9 UNK         0.0227 
     26 CB         24.8822  -47.5448  -58.8472 C.3       9 UNK        -0.1964 
     27 N          26.8991  -46.9030  -57.5738 N.am      9 UNK        -0.4231 
     28 C          27.9840  -46.9942  -58.3611 C.2       9 UNK         0.5014 
     29 O          28.0096  -46.6683  -59.5487 O.2       9 UNK        -0.5270 
     30 CA         29.2639  -47.5284  -57.6990 C.3       8 UNK         0.0284 
     31 CB         29.8933  -46.4459  -56.8062 C.3       8 UNK        -0.1977 
     32 N          29.0177  -48.7454  -56.9210 N.am      8 UNK        -0.4342 
     33 C          28.6168  -49.9154  -57.4436 C.2       8 UNK         0.5039 
     34 O          28.5228  -50.1348  -58.6516 O.2       8 UNK        -0.5547 
     35 CA         28.2295  -51.0232  -56.4517 C.3       7 UNK         0.0281 
     36 CB         29.4639  -51.8256  -56.0073 C.3       7 UNK        -0.1963 
     37 N          27.5355  -50.4728  -55.2850 N.am      7 UNK        -0.4444 
     38 C          26.2397  -50.1254  -55.2772 C.2       7 UNK         0.5104 
     39 O          25.4737  -50.3190  -56.2209 O.2       7 UNK        -0.5100 
     40 CA         25.6990  -49.4419  -54.0072 C.3       6 UNK         0.0396 
     41 CB         25.0525  -50.4800  -53.0765 C.3       6 UNK        -0.1801 
     42 N          26.7193  -48.6982  -53.2639 N.am      6 UNK        -0.4747 
     43 C          27.3055  -47.5679  -53.6871 C.2       6 UNK         0.5012 
     44 O          27.0195  -47.0058  -54.7438 O.2       6 UNK        -0.5003 
     45 CA         28.4496  -47.0165  -52.8107 C.3       5 UNK         0.0782 
     46 C46        27.8909  -46.0623  -51.7279 C.3       11 UNK        -0.0868 
     47 S47        29.2121  -45.3676  -50.6787 S.3       11 UNK        -0.2515 
     48 C48        29.1650  -43.6001  -51.1211 C.3       11 UNK         0.0199 
     49 N          29.2694  -48.0923  -52.2328 N.am      5 UNK        -0.4607 
     50 C          29.9609  -48.9895  -52.9430 C.2       4 UNK         0.5031 
     51 O          29.9830  -49.0113  -54.1773 O.2       4 UNK        -0.5119 
     52 CA         30.6740  -50.0902  -52.1511 C.3       4 UNK         0.0263 
     53 CB         29.6475  -51.1216  -51.6388 C.3       4 UNK        -0.1967 
     54 N          31.6353  -50.7242  -53.0454 N.am      4 UNK        -0.4237 
     55 C          32.5674  -51.6323  -52.7321 C.2       3 UNK         0.4908 
     56 O          32.7579  -52.0605  -51.5939 O.2       3 UNK        -0.5102 
     57 CA         33.4352  -52.1597  -53.8898 C.3       3 UNK         0.0241 
     58 CB         32.8407  -53.4595  -54.4564 C.3       3 UNK        -0.1971 
     59 N          33.5791  -51.1801  -54.9714 N.am      3 UNK        -0.4139 
     60 C          34.3860  -50.1123  -54.9123 C.2       2 UNK         0.5016 
     61 O          35.2053  -49.9351  -54.0078 O.2       2 UNK        -0.5319 
     62 CA         34.2676  -49.0949  -56.0690 C.3       2 UNK         0.0286 
     63 CB         32.8026  -48.8529  -56.4977 C.3       2 UNK        -0.1963 
     64 N          34.9316  -47.8110  -55.7915 N.am      2 UNK        -0.4790 
     65 C          34.6708  -46.9513  -54.7928 C.2       1 UNK         0.5024 
     66 O          33.7834  -47.1073  -53.9511 O.2       1 UNK        -0.4888 
     67 H67        38.1030  -46.8933  -53.9328 H         1 UNK         0.0892 
     68 H68        38.2875  -47.4287  -52.2700 H         1 UNK         0.0892 
     69 H69        36.9185  -48.0014  -53.2138 H         1 UNK         0.0892 
     70 H70        35.3502  -44.5498  -53.0108 H         1 UNK         0.3107 
     71 H71        36.4903  -45.9288  -55.2606 H         1 UNK         0.0773 
     72 H72        34.4948  -44.8401  -56.4804 H         1 UNK         0.0680 
     73 H73        35.7121  -43.8091  -55.8079 H         1 UNK         0.0680 
     74 H74        32.1124  -45.3237  -54.9751 H         1 UNK         0.0650 
     75 H75        32.0653  -44.1587  -56.2802 H         1 UNK         0.0650 
     76 H76        31.2076  -44.6242  -52.6660 H         1 UNK         0.1397 
     77 H77        27.8916  -41.9036  -52.8157 H         1 UNK         0.1363 
     78 H78        30.4224  -42.3923  -56.2395 H         1 UNK         0.1355 
     79 H79        27.8649  -40.2606  -54.6242 H         1 UNK         0.0707 
     80 H80        28.8774  -40.4275  -56.0305 H         1 UNK         0.0707 
     81 H81        27.7574  -41.0299  -58.3265 H         1 UNK         0.1034 
     82 H82        28.5515  -42.4751  -57.7511 H         1 UNK         0.1034 
     83 H83        25.7039  -42.3801  -58.8549 H         1 UNK         0.0482 
     84 H84        28.0537  -44.0072  -61.7146 H         1 UNK         0.3460 
     85 H85        27.7031  -44.8913  -60.2484 H         1 UNK         0.3460 
     86 H86        27.0970  -44.4993  -57.4958 H         1 UNK         0.2989 
     87 H87        24.9765  -46.4085  -57.0324 H         1 UNK         0.0559 
     88 H88        25.3751  -47.6271  -59.8165 H         1 UNK         0.0848 
     89 H89        23.8338  -47.3086  -59.0328 H         1 UNK         0.0848 
     90 H90        24.9122  -48.5256  -58.3723 H         1 UNK         0.0848 
     91 H91        27.0111  -47.1179  -56.5839 H         1 UNK         0.3144 
     92 H92        29.9755  -47.7766  -58.4893 H         1 UNK         0.0727 
     93 H93        29.2248  -46.1295  -56.0057 H         1 UNK         0.0790 
     94 H94        30.1406  -45.5584  -57.3901 H         1 UNK         0.0790 
     95 H95        30.8139  -46.7960  -56.3453 H         1 UNK         0.0790 
     96 H96        29.1516  -48.6879  -55.9158 H         1 UNK         0.3215 
     97 H97        27.5537  -51.7106  -56.9658 H         1 UNK         0.0863 
     98 H98        29.1988  -52.5967  -55.2838 H         1 UNK         0.0808 
     99 H99        30.2261  -51.1909  -55.5597 H         1 UNK         0.0808 
    100 H100       29.9237  -52.3265  -56.8602 H         1 UNK         0.0808 
    101 H101       28.1057  -50.2329  -54.4868 H         1 UNK         0.3118 
    102 H102       24.9266  -48.7353  -54.3184 H         1 UNK         0.0546 
    103 H103       25.7789  -51.2091  -52.7153 H         1 UNK         0.0828 
    104 H104       24.2675  -51.0326  -53.5949 H         1 UNK         0.0828 
    105 H105       24.5920  -50.0051  -52.2100 H         1 UNK         0.0828 
    106 H106       27.0167  -49.0890  -52.3815 H         1 UNK         0.3005 
    107 H107       29.0982  -46.4371  -53.4716 H         1 UNK         0.1257 
    108 H108       27.1877  -46.5856  -51.0772 H         1 UNK         0.0775 
    109 H109       27.3283  -45.2481  -52.1897 H         1 UNK         0.0775 
    110 H110       28.1799  -43.2068  -50.8648 H         1 UNK         0.0840 
    111 H111       29.8790  -43.0664  -50.4926 H         1 UNK         0.0840 
    112 H112       29.3062  -48.1250  -51.2242 H         1 UNK         0.2987 
    113 H113       31.2098  -49.6379  -51.3149 H         1 UNK         0.0785 
    114 H114       28.8969  -50.6529  -51.0018 H         1 UNK         0.0798 
    115 H115       30.1231  -51.8997  -51.0424 H         1 UNK         0.0798 
    116 H116       29.1224  -51.6094  -52.4605 H         1 UNK         0.0798 
    117 H117       31.5698  -50.3843  -53.9955 H         1 UNK         0.3079 
    118 H118       34.4243  -52.3867  -53.4860 H         1 UNK         0.0794 
    119 H119       32.7490  -54.2170  -53.6768 H         1 UNK         0.0786 
    120 H120       33.4744  -53.8778  -55.2383 H         1 UNK         0.0786 
    121 H121       31.8467  -53.3036  -54.8761 H         1 UNK         0.0786 
    122 H122       32.9783  -51.2937  -55.7744 H         1 UNK         0.3032 
    123 H123       34.7975  -49.5352  -56.9154 H         1 UNK         0.1094 
    124 H124       32.7379  -48.0749  -57.2583 H         1 UNK         0.0794 
    125 H125       32.3491  -49.7462  -56.9273 H         1 UNK         0.0794 
    126 H126       32.1862  -48.5454  -55.6531 H         1 UNK         0.0794 
    127 H127       35.6997  -47.5926  -56.4114 H         1 UNK         0.3016 
@<TRIPOS>BOND
     1    1    2 1    
     2    1   67 1    
     3    1   68 1    
     4    1   69 1    
     5    2    3 2    
     6    2    4 am   BACKBONE|DICT|INTERRES
     7    4    5 1    
     8    4   70 1    
     9    5    6 1    
    10    5   65 1    
    11    5   71 1    
    12    6    7 1    
    13    6   72 1    
    14    6   73 1    
    15    7    8 1    
    16    8    9 1    
    17    8   74 1    
    18    8   75 1    
    19    9   10 ar   
    20    9   14 ar   
    21   10   11 ar   
    22   10   76 1    
    23   11   12 ar   
    24   11   48 1    
    25   12   13 ar   
    26   12   77 1    
    27   13   14 ar   
    28   13   15 1    
    29   14   78 1    
    30   15   16 1    
    31   15   79 1    
    32   15   80 1    
    33   16   17 1    
    34   17   18 1    
    35   17   81 1    
    36   17   82 1    
    37   18   19 1    
    38   18   22 1    
    39   18   83 1    
    40   19   20 am   BACKBONE|DICT|INTERRES
    41   19   21 2    
    42   20   84 1    
    43   20   85 1    
    44   22   23 am   BACKBONE|DICT|INTERRES
    45   22   86 1    
    46   23   24 2    
    47   23   25 1    
    48   25   26 1    
    49   25   27 1    
    50   25   87 1    
    51   26   88 1    
    52   26   89 1    
    53   26   90 1    
    54   27   28 am   BACKBONE|DICT|INTERRES
    55   27   91 1    
    56   28   29 2    
    57   28   30 1    
    58   30   31 1    
    59   30   32 1    
    60   30   92 1    
    61   31   93 1    
    62   31   94 1    
    63   31   95 1    
    64   32   33 am   BACKBONE|DICT|INTERRES
    65   32   96 1    
    66   33   34 2    
    67   33   35 1    
    68   35   36 1    
    69   35   37 1    
    70   35   97 1    
    71   36   98 1    
    72   36   99 1    
    73   36  100 1    
    74   37   38 am   BACKBONE|DICT|INTERRES
    75   37  101 1    
    76   38   39 2    
    77   38   40 1    
    78   40   41 1    
    79   40   42 1    
    80   40  102 1    
    81   41  103 1    
    82   41  104 1    
    83   41  105 1    
    84   42   43 am   BACKBONE|DICT|INTERRES
    85   42  106 1    
    86   43   44 2    
    87   43   45 1    
    88   45   46 1    
    89   45   49 1    
    90   45  107 1    
    91   46   47 1    
    92   46  108 1    
    93   46  109 1    
    94   47   48 1    
    95   48  110 1    
    96   48  111 1    
    97   49   50 am   BACKBONE|DICT|INTERRES
    98   49  112 1    
    99   50   51 2    
   100   50   52 1    
   101   52   53 1    
   102   52   54 1    
   103   52  113 1    
   104   53  114 1    
   105   53  115 1    
   106   53  116 1    
   107   54   55 am   BACKBONE|DICT|INTERRES
   108   54  117 1    
   109   55   56 2    
   110   55   57 1    
   111   57   58 1    
   112   57   59 1    
   113   57  118 1    
   114   58  119 1    
   115   58  120 1    
   116   58  121 1    
   117   59   60 am   BACKBONE|DICT|INTERRES
   118   59  122 1    
   119   60   61 2    
   120   60   62 1    
   121   62   63 1    
   122   62   64 1    
   123   62  123 1    
   124   63  124 1    
   125   63  125 1    
   126   63  126 1    
   127   64   65 am   BACKBONE|DICT|INTERRES
   128   64  127 1    
   129   65   66 2    
@<TRIPOS>SUBSTRUCTURE
     1 UNK         1 GROUP             0       ****    0 ROOT    
