@<TRIPOS>MOLECULE
3R134
127   129    1
SMALL
USER_CHARGES


@<TRIPOS>ATOM
      1 CA         35.8892  -44.7632  -47.7260 C.3       0 UNK        -0.1968 
      2 C          35.4874  -45.0595  -49.1636 C.2       0 UNK         0.4852 
      3 O          34.4568  -45.6957  -49.3869 O.2       0 UNK        -0.5359 
      4 N          36.2923  -44.5987  -50.1319 N.am      1 UNK        -0.4300 
      5 CA         36.1283  -44.7999  -51.5750 C.3       1 UNK         0.0863 
      6 C6         34.8284  -44.1516  -52.1390 C.3       11 UNK        -0.0953 
      7 S7         34.9715  -43.7027  -53.9053 S.3       11 UNK        -0.2369 
      8 C8         33.8676  -44.8992  -54.7284 C.3       11 UNK         0.0226 
      9 C9         32.4396  -44.3937  -54.9055 C.ar      11 UNK        -0.0699 
     10 C10        31.6673  -44.0268  -53.8002 C.ar      11 UNK        -0.0804 
     11 C11        30.3343  -43.6393  -53.9540 C.ar      11 UNK        -0.0871 
     12 C12        29.7679  -43.6202  -55.2313 C.ar      11 UNK        -0.1008 
     13 C13        30.5252  -43.9880  -56.3494 C.ar      11 UNK        -0.0735 
     14 C14        31.8625  -44.3603  -56.1793 C.ar      11 UNK        -0.0945 
     15 C15        29.8862  -44.0614  -57.7300 C.3       11 UNK         0.0169 
     16 S16        29.0106  -42.5297  -58.1864 S.3       11 UNK        -0.2669 
     17 C17        28.1628  -43.0528  -59.7176 C.3       11 UNK        -0.0850 
     18 CA         26.6855  -43.4662  -59.4744 C.3       10 UNK         0.0855 
     19 C          25.9317  -43.6859  -60.8203 C.2       10 UNK         0.5543 
     20 N          25.3794  -44.8607  -61.1031 N.am      10 UNK        -0.7343 
     21 O          25.8408  -42.7626  -61.6256 O.2       10 UNK        -0.5027 
     22 N          26.5953  -44.5993  -58.5425 N.am      10 UNK        -0.4495 
     23 C          25.5330  -44.9099  -57.7916 C.2       10 UNK         0.4903 
     24 O          24.5099  -44.2260  -57.7332 O.2       10 UNK        -0.4860 
     25 CA         25.6460  -46.2126  -56.9727 C.3       9 UNK         0.0227 
     26 CB         24.2728  -46.7902  -56.5723 C.3       9 UNK        -0.1964 
     27 N          26.4702  -47.2470  -57.6161 N.am      9 UNK        -0.4231 
     28 C          26.2832  -47.7985  -58.8263 C.2       9 UNK         0.5014 
     29 O          25.3827  -47.4712  -59.6001 O.2       9 UNK        -0.5270 
     30 CA         27.2814  -48.8796  -59.2597 C.3       8 UNK         0.0284 
     31 CB         28.5571  -48.2365  -59.8323 C.3       8 UNK        -0.1977 
     32 N          27.6299  -49.7638  -58.1430 N.am      8 UNK        -0.4342 
     33 C          27.2761  -51.0526  -58.0562 C.2       8 UNK         0.5039 
     34 O          26.6303  -51.6471  -58.9209 O.2       8 UNK        -0.5547 
     35 CA         27.7212  -51.8283  -56.8050 C.3       7 UNK         0.0281 
     36 CB         29.1329  -52.4072  -56.9937 C.3       7 UNK        -0.1963 
     37 N          27.6709  -51.0524  -55.5634 N.am      7 UNK        -0.4444 
     38 C          26.5367  -50.7048  -54.9372 C.2       7 UNK         0.5104 
     39 O          25.4110  -50.9023  -55.3947 O.2       7 UNK        -0.5100 
     40 CA         26.6798  -50.0510  -53.5547 C.3       6 UNK         0.0396 
     41 CB         27.0108  -51.1092  -52.4892 C.3       6 UNK        -0.1801 
     42 N          27.7244  -49.0288  -53.5640 N.am      6 UNK        -0.4747 
     43 C          27.4976  -47.7139  -53.6912 C.2       6 UNK         0.5012 
     44 O          26.3715  -47.2178  -53.7151 O.2       6 UNK        -0.5003 
     45 CA         28.7316  -46.7943  -53.8412 C.3       5 UNK         0.0782 
     46 C46        29.0882  -46.0962  -52.5010 C.3       11 UNK        -0.0868 
     47 S47        28.2113  -44.5002  -52.3473 S.3       11 UNK        -0.2515 
     48 C48        29.5080  -43.2733  -52.7274 C.3       11 UNK         0.0199 
     49 N          29.8872  -47.4696  -54.4457 N.am      5 UNK        -0.4607 
     50 C          29.8954  -47.9565  -55.6952 C.2       4 UNK         0.5031 
     51 O          28.9461  -47.8448  -56.4702 O.2       4 UNK        -0.5119 
     52 CA         31.1216  -48.7670  -56.1500 C.3       4 UNK         0.0263 
     53 CB         32.1045  -47.8696  -56.9153 C.3       4 UNK        -0.1967 
     54 N          31.8343  -49.4539  -55.0695 N.am      4 UNK        -0.4237 
     55 C          31.3031  -50.2905  -54.1655 C.2       3 UNK         0.4908 
     56 O          30.1205  -50.6365  -54.1773 O.2       3 UNK        -0.5102 
     57 CA         32.2222  -50.8078  -53.0399 C.3       3 UNK         0.0241 
     58 CB         32.4257  -52.3258  -53.1761 C.3       3 UNK        -0.1971 
     59 N          33.5363  -50.1527  -52.9534 N.am      3 UNK        -0.4139 
     60 C          33.7504  -48.8565  -52.6854 C.2       2 UNK         0.5016 
     61 O          32.8469  -48.0372  -52.4875 O.2       2 UNK        -0.5319 
     62 CA         35.2132  -48.3900  -52.7123 C.3       2 UNK         0.0286 
     63 CB         35.8029  -48.5094  -54.1346 C.3       2 UNK        -0.1963 
     64 N          35.2537  -47.0009  -52.2694 N.am      2 UNK        -0.4790 
     65 C          36.3345  -46.2888  -51.9363 C.2       1 UNK         0.5024 
     66 O          37.4736  -46.7580  -51.9045 O.2       1 UNK        -0.4888 
     67 H67        35.1043  -44.1954  -47.2270 H         1 UNK         0.0892 
     68 H68        36.0370  -45.6939  -47.1788 H         1 UNK         0.0892 
     69 H69        36.8122  -44.1865  -47.6695 H         1 UNK         0.0892 
     70 H70        37.1355  -44.1076  -49.8681 H         1 UNK         0.3107 
     71 H71        36.9724  -44.2708  -52.0208 H         1 UNK         0.0773 
     72 H72        33.9526  -44.7714  -51.9518 H         1 UNK         0.0680 
     73 H73        34.6327  -43.2179  -51.6095 H         1 UNK         0.0680 
     74 H74        33.8404  -45.8381  -54.1791 H         1 UNK         0.0650 
     75 H75        34.3059  -45.1353  -55.6991 H         1 UNK         0.0650 
     76 H76        32.0924  -44.0590  -52.8096 H         1 UNK         0.1397 
     77 H77        28.7291  -43.3441  -55.3514 H         1 UNK         0.1363 
     78 H78        32.4458  -44.6614  -57.0386 H         1 UNK         0.1355 
     79 H79        29.1943  -44.9033  -57.7340 H         1 UNK         0.0707 
     80 H80        30.6365  -44.2734  -58.4934 H         1 UNK         0.0707 
     81 H81        28.7191  -43.8614  -60.1954 H         1 UNK         0.1034 
     82 H82        28.2102  -42.2106  -60.4109 H         1 UNK         0.1034 
     83 H83        26.1882  -42.6173  -59.0010 H         1 UNK         0.0482 
     84 H84        24.8942  -44.9740  -61.9787 H         1 UNK         0.3460 
     85 H85        25.4237  -45.6372  -60.4523 H         1 UNK         0.3460 
     86 H86        27.3773  -45.2342  -58.5401 H         1 UNK         0.2989 
     87 H87        26.1689  -45.9368  -56.0569 H         1 UNK         0.0559 
     88 H88        23.6705  -47.0437  -57.4452 H         1 UNK         0.0848 
     89 H89        23.7036  -46.0742  -55.9784 H         1 UNK         0.0848 
     90 H90        24.3858  -47.6904  -55.9676 H         1 UNK         0.0848 
     91 H91        27.3029  -47.5234  -57.0980 H         1 UNK         0.3144 
     92 H92        26.8099  -49.4484  -60.0640 H         1 UNK         0.0727 
     93 H93        29.2530  -48.9955  -60.1902 H         1 UNK         0.0790 
     94 H94        29.0805  -47.6272  -59.0954 H         1 UNK         0.0790 
     95 H95        28.3203  -47.5907  -60.6791 H         1 UNK         0.0790 
     96 H96        28.1423  -49.3389  -57.3769 H         1 UNK         0.3215 
     97 H97        27.0350  -52.6707  -56.6909 H         1 UNK         0.0863 
     98 H98        29.4249  -53.0255  -56.1445 H         1 UNK         0.0808 
     99 H99        29.8824  -51.6259  -57.1098 H         1 UNK         0.0808 
    100 H100       29.1795  -53.0367  -57.8834 H         1 UNK         0.0808 
    101 H101       28.5573  -50.8846  -55.0914 H         1 UNK         0.3118 
    102 H102       25.7170  -49.6075  -53.2922 H         1 UNK         0.0546 
    103 H103       26.2460  -51.8865  -52.4614 H         1 UNK         0.0828 
    104 H104       27.0573  -50.6658  -51.4946 H         1 UNK         0.0828 
    105 H105       27.9664  -51.5987  -52.6811 H         1 UNK         0.0828 
    106 H106       28.6814  -49.3646  -53.5919 H         1 UNK         0.3005 
    107 H107       28.4400  -46.0294  -54.5643 H         1 UNK         0.1257 
    108 H108       30.1612  -45.9202  -52.4207 H         1 UNK         0.0775 
    109 H109       28.8432  -46.7207  -51.6393 H         1 UNK         0.0775 
    110 H110       29.0395  -42.3010  -52.8858 H         1 UNK         0.0840 
    111 H111       30.1481  -43.1608  -51.8508 H         1 UNK         0.0840 
    112 H112       30.7025  -47.6001  -53.8618 H         1 UNK         0.2987 
    113 H113       30.7594  -49.5296  -56.8396 H         1 UNK         0.0785 
    114 H114       32.5863  -47.1500  -56.2543 H         1 UNK         0.0798 
    115 H115       31.5963  -47.3072  -57.7004 H         1 UNK         0.0798 
    116 H116       32.8864  -48.4579  -57.3958 H         1 UNK         0.0798 
    117 H117       32.8132  -49.2329  -54.9712 H         1 UNK         0.3079 
    118 H118       31.6996  -50.6169  -52.1004 H         1 UNK         0.0794 
    119 H119       32.9611  -52.5809  -54.0916 H         1 UNK         0.0786 
    120 H120       31.4687  -52.8494  -53.2026 H         1 UNK         0.0786 
    121 H121       32.9872  -52.7292  -52.3332 H         1 UNK         0.0786 
    122 H122       34.3370  -50.7474  -53.1145 H         1 UNK         0.3032 
    123 H123       35.7865  -49.0029  -52.0133 H         1 UNK         0.1094 
    124 H124       36.8426  -48.1838  -54.1665 H         1 UNK         0.0794 
    125 H125       35.7885  -49.5403  -54.4898 H         1 UNK         0.0794 
    126 H126       35.2465  -47.9073  -54.8540 H         1 UNK         0.0794 
    127 H127       34.3337  -46.5864  -52.1726 H         1 UNK         0.3016 
@<TRIPOS>BOND
     1    1    2 1    
     2    1   67 1    
     3    1   68 1    
     4    1   69 1    
     5    2    3 2    
     6    2    4 am   BACKBONE|DICT|INTERRES
     7    4    5 1    
     8    4   70 1    
     9    5    6 1    
    10    5   65 1    
    11    5   71 1    
    12    6    7 1    
    13    6   72 1    
    14    6   73 1    
    15    7    8 1    
    16    8    9 1    
    17    8   74 1    
    18    8   75 1    
    19    9   10 ar   
    20    9   14 ar   
    21   10   11 ar   
    22   10   76 1    
    23   11   12 ar   
    24   11   48 1    
    25   12   13 ar   
    26   12   77 1    
    27   13   14 ar   
    28   13   15 1    
    29   14   78 1    
    30   15   16 1    
    31   15   79 1    
    32   15   80 1    
    33   16   17 1    
    34   17   18 1    
    35   17   81 1    
    36   17   82 1    
    37   18   19 1    
    38   18   22 1    
    39   18   83 1    
    40   19   20 am   BACKBONE|DICT|INTERRES
    41   19   21 2    
    42   20   84 1    
    43   20   85 1    
    44   22   23 am   BACKBONE|DICT|INTERRES
    45   22   86 1    
    46   23   24 2    
    47   23   25 1    
    48   25   26 1    
    49   25   27 1    
    50   25   87 1    
    51   26   88 1    
    52   26   89 1    
    53   26   90 1    
    54   27   28 am   BACKBONE|DICT|INTERRES
    55   27   91 1    
    56   28   29 2    
    57   28   30 1    
    58   30   31 1    
    59   30   32 1    
    60   30   92 1    
    61   31   93 1    
    62   31   94 1    
    63   31   95 1    
    64   32   33 am   BACKBONE|DICT|INTERRES
    65   32   96 1    
    66   33   34 2    
    67   33   35 1    
    68   35   36 1    
    69   35   37 1    
    70   35   97 1    
    71   36   98 1    
    72   36   99 1    
    73   36  100 1    
    74   37   38 am   BACKBONE|DICT|INTERRES
    75   37  101 1    
    76   38   39 2    
    77   38   40 1    
    78   40   41 1    
    79   40   42 1    
    80   40  102 1    
    81   41  103 1    
    82   41  104 1    
    83   41  105 1    
    84   42   43 am   BACKBONE|DICT|INTERRES
    85   42  106 1    
    86   43   44 2    
    87   43   45 1    
    88   45   46 1    
    89   45   49 1    
    90   45  107 1    
    91   46   47 1    
    92   46  108 1    
    93   46  109 1    
    94   47   48 1    
    95   48  110 1    
    96   48  111 1    
    97   49   50 am   BACKBONE|DICT|INTERRES
    98   49  112 1    
    99   50   51 2    
   100   50   52 1    
   101   52   53 1    
   102   52   54 1    
   103   52  113 1    
   104   53  114 1    
   105   53  115 1    
   106   53  116 1    
   107   54   55 am   BACKBONE|DICT|INTERRES
   108   54  117 1    
   109   55   56 2    
   110   55   57 1    
   111   57   58 1    
   112   57   59 1    
   113   57  118 1    
   114   58  119 1    
   115   58  120 1    
   116   58  121 1    
   117   59   60 am   BACKBONE|DICT|INTERRES
   118   59  122 1    
   119   60   61 2    
   120   60   62 1    
   121   62   63 1    
   122   62   64 1    
   123   62  123 1    
   124   63  124 1    
   125   63  125 1    
   126   63  126 1    
   127   64   65 am   BACKBONE|DICT|INTERRES
   128   64  127 1    
   129   65   66 2    
@<TRIPOS>SUBSTRUCTURE
     1 UNK         1 GROUP             0       ****    0 ROOT    
