@<TRIPOS>MOLECULE
3R134
127   129    1
SMALL
USER_CHARGES


@<TRIPOS>ATOM
      1 CA         35.5385  -47.4894  -55.1429 C.3       0 UNK        -0.1968 
      2 C          34.3726  -46.7789  -54.4721 C.2       0 UNK         0.4852 
      3 O          33.3132  -47.3770  -54.2699 O.2       0 UNK        -0.5359 
      4 N          34.5753  -45.5005  -54.1304 N.am      1 UNK        -0.4300 
      5 CA         33.5871  -44.5725  -53.5677 C.3       1 UNK         0.0863 
      6 C6         34.2391  -43.1853  -53.3296 C.3       11 UNK        -0.0953 
      7 S7         33.0938  -41.7895  -53.5573 S.3       11 UNK        -0.2369 
      8 C8         33.3305  -41.4049  -55.3251 C.3       11 UNK         0.0226 
      9 C9         32.4716  -42.2994  -56.2059 C.ar      11 UNK        -0.0699 
     10 C10        33.0378  -43.3138  -56.9881 C.ar      11 UNK        -0.0804 
     11 C11        32.2234  -44.1373  -57.7757 C.ar      11 UNK        -0.0871 
     12 C12        30.8388  -43.9412  -57.7693 C.ar      11 UNK        -0.1008 
     13 C13        30.2634  -42.9471  -56.9738 C.ar      11 UNK        -0.0735 
     14 C14        31.0879  -42.1124  -56.2178 C.ar      11 UNK        -0.0945 
     15 C15        28.7483  -42.8187  -56.8780 C.3       11 UNK         0.0169 
     16 S16        28.1422  -43.0496  -55.1705 S.3       11 UNK        -0.2669 
     17 C17        29.0808  -44.5262  -54.6320 C.3       11 UNK        -0.0850 
     18 CA         28.2753  -45.5335  -53.7790 C.3       10 UNK         0.0855 
     19 C          27.8910  -44.9845  -52.3735 C.2       10 UNK         0.5543 
     20 N          28.8735  -44.6526  -51.5463 N.am      10 UNK        -0.7343 
     21 O          26.7202  -44.8447  -52.0226 O.2       10 UNK        -0.5027 
     22 N          27.1459  -46.0797  -54.5394 N.am      10 UNK        -0.4495 
     23 C          26.4923  -47.2098  -54.2564 C.2       10 UNK         0.4903 
     24 O          26.8254  -47.9874  -53.3617 O.2       10 UNK        -0.4860 
     25 CA         25.2644  -47.5487  -55.1221 C.3       9 UNK         0.0227 
     26 CB         24.0255  -46.7492  -54.6733 C.3       9 UNK        -0.1964 
     27 N          25.4935  -47.4422  -56.5706 N.am      9 UNK        -0.4231 
     28 C          25.7310  -46.3511  -57.3182 C.2       9 UNK         0.5014 
     29 O          25.7299  -45.2050  -56.8673 O.2       9 UNK        -0.5270 
     30 CA         26.0491  -46.5697  -58.8110 C.3       8 UNK         0.0284 
     31 CB         27.1360  -45.6010  -59.3110 C.3       8 UNK        -0.1977 
     32 N          26.5034  -47.9385  -59.0542 N.am      8 UNK        -0.4342 
     33 C          25.8751  -48.8510  -59.8076 C.2       8 UNK         0.5039 
     34 O          24.8620  -48.6163  -60.4672 O.2       8 UNK        -0.5547 
     35 CA         26.4569  -50.2797  -59.8136 C.3       7 UNK         0.0281 
     36 CB         27.3067  -50.5068  -61.0743 C.3       7 UNK        -0.1963 
     37 N          27.2613  -50.5975  -58.6284 N.am      7 UNK        -0.4444 
     38 C          26.8041  -50.6192  -57.3684 C.2       7 UNK         0.5104 
     39 O          25.6239  -50.4418  -57.0675 O.2       7 UNK        -0.5100 
     40 CA         27.8460  -50.7869  -56.2502 C.3       6 UNK         0.0396 
     41 CB         27.9312  -52.2539  -55.8039 C.3       6 UNK        -0.1801 
     42 N          29.1896  -50.3078  -56.5940 N.am      6 UNK        -0.4747 
     43 C          29.5271  -49.0526  -56.9260 C.2       6 UNK         0.5012 
     44 O          28.6915  -48.1639  -57.1025 O.2       6 UNK        -0.5003 
     45 CA         31.0402  -48.7427  -57.0749 C.3       5 UNK         0.0782 
     46 C46        31.2788  -47.2367  -57.3697 C.3       11 UNK        -0.0868 
     47 S47        33.0099  -46.8201  -57.7592 S.3       11 UNK        -0.2515 
     48 C48        32.8295  -45.2346  -58.6444 C.3       11 UNK         0.0199 
     49 N          31.7884  -49.1997  -55.8933 N.am      5 UNK        -0.4607 
     50 C          32.0634  -50.4740  -55.5735 C.2       4 UNK         0.5031 
     51 O          31.8392  -51.4214  -56.3274 O.2       4 UNK        -0.5119 
     52 CA         32.5698  -50.7574  -54.1494 C.3       4 UNK         0.0263 
     53 CB         34.1015  -50.8041  -54.0828 C.3       4 UNK        -0.1967 
     54 N          32.0441  -49.7714  -53.1995 N.am      4 UNK        -0.4237 
     55 C          30.8521  -49.8912  -52.5963 C.2       3 UNK         0.4908 
     56 O          30.1539  -50.9028  -52.6857 O.2       3 UNK        -0.5102 
     57 CA         30.3124  -48.6845  -51.8013 C.3       3 UNK         0.0241 
     58 CB         29.4703  -49.1108  -50.5798 C.3       3 UNK        -0.1971 
     59 N          31.3110  -47.6788  -51.4155 N.am      3 UNK        -0.4139 
     60 C          32.3490  -47.8204  -50.5801 C.2       2 UNK         0.5016 
     61 O          32.6785  -48.8930  -50.0710 O.2       2 UNK        -0.5319 
     62 CA         33.1464  -46.5352  -50.2617 C.3       2 UNK         0.0286 
     63 CB         34.3495  -46.7991  -49.3366 C.3       2 UNK        -0.1963 
     64 N          33.6245  -45.8492  -51.4656 N.am      2 UNK        -0.4790 
     65 C          32.8828  -45.1057  -52.3000 C.2       1 UNK         0.5024 
     66 O          31.6799  -44.8953  -52.1297 O.2       1 UNK        -0.4888 
     67 H67        35.1746  -48.1604  -55.9206 H         1 UNK         0.0892 
     68 H68        36.0986  -48.0725  -54.4129 H         1 UNK         0.0892 
     69 H69        36.2222  -46.7824  -55.6120 H         1 UNK         0.0892 
     70 H70        35.4820  -45.0968  -54.3157 H         1 UNK         0.3107 
     71 H71        32.8130  -44.4753  -54.3315 H         1 UNK         0.0773 
     72 H72        35.0759  -43.0298  -54.0121 H         1 UNK         0.0680 
     73 H73        34.6764  -43.1178  -52.3313 H         1 UNK         0.0680 
     74 H74        33.0473  -40.3651  -55.4947 H         1 UNK         0.0650 
     75 H75        34.3849  -41.4783  -55.5947 H         1 UNK         0.0650 
     76 H76        34.1082  -43.4672  -56.9799 H         1 UNK         0.1397 
     77 H77        30.2049  -44.5827  -58.3646 H         1 UNK         0.1363 
     78 H78        30.6457  -41.3455  -55.5963 H         1 UNK         0.1355 
     79 H79        28.2559  -43.5502  -57.5184 H         1 UNK         0.0707 
     80 H80        28.4432  -41.8353  -57.2376 H         1 UNK         0.0707 
     81 H81        29.9747  -44.1911  -54.1037 H         1 UNK         0.1034 
     82 H82        29.4477  -45.0551  -55.5116 H         1 UNK         0.1034 
     83 H83        28.9449  -46.3722  -53.5919 H         1 UNK         0.0482 
     84 H84        29.8494  -44.7120  -51.8214 H         1 UNK         0.3460 
     85 H85        28.6374  -44.2899  -50.6367 H         1 UNK         0.3460 
     86 H86        26.7775  -45.4943  -55.2840 H         1 UNK         0.2989 
     87 H87        25.0453  -48.6032  -54.9469 H         1 UNK         0.0559 
     88 H88        24.1646  -45.6744  -54.7920 H         1 UNK         0.0848 
     89 H89        23.8108  -46.9295  -53.6192 H         1 UNK         0.0848 
     90 H90        23.1399  -47.0382  -55.2390 H         1 UNK         0.0848 
     91 H91        25.5245  -48.3386  -57.0435 H         1 UNK         0.3144 
     92 H92        25.1282  -46.3662  -59.3609 H         1 UNK         0.0727 
     93 H93        26.8137  -44.5636  -59.2143 H         1 UNK         0.0790 
     94 H94        27.3629  -45.7696  -60.3638 H         1 UNK         0.0790 
     95 H95        28.0613  -45.7169  -58.7457 H         1 UNK         0.0790 
     96 H96        27.3234  -48.2170  -58.5206 H         1 UNK         0.3215 
     97 H97        25.6131  -50.9728  -59.8367 H         1 UNK         0.0863 
     98 H98        27.6560  -51.5376  -61.1389 H         1 UNK         0.0808 
     99 H99        28.1790  -49.8523  -61.0974 H         1 UNK         0.0808 
    100 H100       26.7265  -50.3072  -61.9765 H         1 UNK         0.0808 
    101 H101       28.2483  -50.7539  -58.7729 H         1 UNK         0.3118 
    102 H102       27.5027  -50.1940  -55.3998 H         1 UNK         0.0546 
    103 H103       26.9495  -52.6331  -55.5162 H         1 UNK         0.0828 
    104 H104       28.5855  -52.3659  -54.9386 H         1 UNK         0.0828 
    105 H105       28.3107  -52.8972  -56.5986 H         1 UNK         0.0828 
    106 H106       29.9511  -50.9720  -56.4854 H         1 UNK         0.3005 
    107 H107       31.3896  -49.3107  -57.9399 H         1 UNK         0.1257 
    108 H108       30.9663  -46.6292  -56.5189 H         1 UNK         0.0775 
    109 H109       30.6699  -46.9224  -58.2193 H         1 UNK         0.0775 
    110 H110       33.8117  -44.9201  -59.0001 H         1 UNK         0.0840 
    111 H111       32.2229  -45.3878  -59.5384 H         1 UNK         0.0840 
    112 H112       32.0869  -48.4715  -55.2500 H         1 UNK         0.2987 
    113 H113       32.2100  -51.7509  -53.8727 H         1 UNK         0.0785 
    114 H114       34.5005  -51.5391  -54.7831 H         1 UNK         0.0798 
    115 H115       34.4443  -51.0836  -53.0865 H         1 UNK         0.0798 
    116 H116       34.5446  -49.8449  -54.3296 H         1 UNK         0.0798 
    117 H117       32.5381  -48.8862  -53.1453 H         1 UNK         0.3079 
    118 H118       29.6343  -48.1815  -52.4885 H         1 UNK         0.0794 
    119 H119       30.0575  -49.6878  -49.8648 H         1 UNK         0.0786 
    120 H120       28.6245  -49.7298  -50.8822 H         1 UNK         0.0786 
    121 H121       29.0610  -48.2446  -50.0598 H         1 UNK         0.0786 
    122 H122       31.1791  -46.7503  -51.8037 H         1 UNK         0.3032 
    123 H123       32.4632  -45.8669  -49.7321 H         1 UNK         0.1094 
    124 H124       34.0303  -47.2598  -48.4006 H         1 UNK         0.0794 
    125 H125       35.0754  -47.4690  -49.7993 H         1 UNK         0.0794 
    126 H126       34.8631  -45.8727  -49.0786 H         1 UNK         0.0794 
    127 H127       34.5885  -46.0119  -51.7184 H         1 UNK         0.3016 
@<TRIPOS>BOND
     1    1    2 1    
     2    1   67 1    
     3    1   68 1    
     4    1   69 1    
     5    2    3 2    
     6    2    4 am   BACKBONE|DICT|INTERRES
     7    4    5 1    
     8    4   70 1    
     9    5    6 1    
    10    5   65 1    
    11    5   71 1    
    12    6    7 1    
    13    6   72 1    
    14    6   73 1    
    15    7    8 1    
    16    8    9 1    
    17    8   74 1    
    18    8   75 1    
    19    9   10 ar   
    20    9   14 ar   
    21   10   11 ar   
    22   10   76 1    
    23   11   12 ar   
    24   11   48 1    
    25   12   13 ar   
    26   12   77 1    
    27   13   14 ar   
    28   13   15 1    
    29   14   78 1    
    30   15   16 1    
    31   15   79 1    
    32   15   80 1    
    33   16   17 1    
    34   17   18 1    
    35   17   81 1    
    36   17   82 1    
    37   18   19 1    
    38   18   22 1    
    39   18   83 1    
    40   19   20 am   BACKBONE|DICT|INTERRES
    41   19   21 2    
    42   20   84 1    
    43   20   85 1    
    44   22   23 am   BACKBONE|DICT|INTERRES
    45   22   86 1    
    46   23   24 2    
    47   23   25 1    
    48   25   26 1    
    49   25   27 1    
    50   25   87 1    
    51   26   88 1    
    52   26   89 1    
    53   26   90 1    
    54   27   28 am   BACKBONE|DICT|INTERRES
    55   27   91 1    
    56   28   29 2    
    57   28   30 1    
    58   30   31 1    
    59   30   32 1    
    60   30   92 1    
    61   31   93 1    
    62   31   94 1    
    63   31   95 1    
    64   32   33 am   BACKBONE|DICT|INTERRES
    65   32   96 1    
    66   33   34 2    
    67   33   35 1    
    68   35   36 1    
    69   35   37 1    
    70   35   97 1    
    71   36   98 1    
    72   36   99 1    
    73   36  100 1    
    74   37   38 am   BACKBONE|DICT|INTERRES
    75   37  101 1    
    76   38   39 2    
    77   38   40 1    
    78   40   41 1    
    79   40   42 1    
    80   40  102 1    
    81   41  103 1    
    82   41  104 1    
    83   41  105 1    
    84   42   43 am   BACKBONE|DICT|INTERRES
    85   42  106 1    
    86   43   44 2    
    87   43   45 1    
    88   45   46 1    
    89   45   49 1    
    90   45  107 1    
    91   46   47 1    
    92   46  108 1    
    93   46  109 1    
    94   47   48 1    
    95   48  110 1    
    96   48  111 1    
    97   49   50 am   BACKBONE|DICT|INTERRES
    98   49  112 1    
    99   50   51 2    
   100   50   52 1    
   101   52   53 1    
   102   52   54 1    
   103   52  113 1    
   104   53  114 1    
   105   53  115 1    
   106   53  116 1    
   107   54   55 am   BACKBONE|DICT|INTERRES
   108   54  117 1    
   109   55   56 2    
   110   55   57 1    
   111   57   58 1    
   112   57   59 1    
   113   57  118 1    
   114   58  119 1    
   115   58  120 1    
   116   58  121 1    
   117   59   60 am   BACKBONE|DICT|INTERRES
   118   59  122 1    
   119   60   61 2    
   120   60   62 1    
   121   62   63 1    
   122   62   64 1    
   123   62  123 1    
   124   63  124 1    
   125   63  125 1    
   126   63  126 1    
   127   64   65 am   BACKBONE|DICT|INTERRES
   128   64  127 1    
   129   65   66 2    
@<TRIPOS>SUBSTRUCTURE
     1 UNK         1 GROUP             0       ****    0 ROOT    
