@<TRIPOS>MOLECULE
3R134
127   129    1
SMALL
USER_CHARGES


@<TRIPOS>ATOM
      1 CA         37.5071  -44.7131  -48.1226 C.3       0 UNK        -0.1968 
      2 C          36.8297  -44.8873  -49.4742 C.2       0 UNK         0.4852 
      3 O          37.5153  -44.9743  -50.4944 O.2       0 UNK        -0.5359 
      4 N          35.4909  -44.9303  -49.4903 N.am      1 UNK        -0.4300 
      5 CA         34.6753  -45.1602  -50.6849 C.3       1 UNK         0.0863 
      6 C6         33.2042  -44.7360  -50.4337 C.3       11 UNK        -0.0953 
      7 S7         32.1293  -44.8630  -51.9027 S.3       11 UNK        -0.2369 
      8 C8         32.4910  -43.2916  -52.7362 C.3       11 UNK         0.0226 
      9 C9         31.8990  -43.2803  -54.1352 C.ar      11 UNK        -0.0699 
     10 C10        32.6386  -43.7652  -55.2174 C.ar      11 UNK        -0.0804 
     11 C11        32.1006  -43.7529  -56.5083 C.ar      11 UNK        -0.0871 
     12 C12        30.8076  -43.2573  -56.7108 C.ar      11 UNK        -0.1008 
     13 C13        30.0594  -42.7705  -55.6340 C.ar      11 UNK        -0.0735 
     14 C14        30.6126  -42.7816  -54.3501 C.ar      11 UNK        -0.0945 
     15 C15        28.6638  -42.2050  -55.8450 C.3       11 UNK         0.0169 
     16 S16        27.3946  -43.2887  -55.1206 S.3       11 UNK        -0.2669 
     17 C17        26.6421  -44.0450  -56.6024 C.3       11 UNK        -0.0850 
     18 CA         25.2521  -44.6670  -56.2841 C.3       10 UNK         0.0855 
     19 C          24.0910  -43.6308  -56.1343 C.2       10 UNK         0.5543 
     20 N          22.8367  -44.0663  -56.1717 N.am      10 UNK        -0.7343 
     21 O          24.3106  -42.4319  -55.9796 O.2       10 UNK        -0.5027 
     22 N          24.9309  -45.7996  -57.1696 N.am      10 UNK        -0.4495 
     23 C          24.6063  -45.7064  -58.4667 C.2       10 UNK         0.4903 
     24 O          24.6456  -44.6568  -59.1116 O.2       10 UNK        -0.4860 
     25 CA         24.1218  -47.0064  -59.1363 C.3       9 UNK         0.0227 
     26 CB         23.6905  -46.8069  -60.6057 C.3       9 UNK        -0.1964 
     27 N          25.0844  -48.1055  -59.0203 N.am      9 UNK        -0.4231 
     28 C          26.3299  -48.1669  -59.5101 C.2       9 UNK         0.5014 
     29 O          26.8729  -47.2520  -60.1323 O.2       9 UNK        -0.5270 
     30 CA         27.0743  -49.5008  -59.2865 C.3       8 UNK         0.0284 
     31 CB         28.4399  -49.5391  -59.9975 C.3       8 UNK        -0.1977 
     32 N          27.2626  -49.8167  -57.8669 N.am      8 UNK        -0.4342 
     33 C          26.3046  -50.2132  -57.0173 C.2       8 UNK         0.5039 
     34 O          25.1308  -50.3876  -57.3510 O.2       8 UNK        -0.5547 
     35 CA         26.7066  -50.4213  -55.5475 C.3       7 UNK         0.0281 
     36 CB         27.2805  -51.8312  -55.3380 C.3       7 UNK        -0.1963 
     37 N          27.6614  -49.4177  -55.0696 N.am      7 UNK        -0.4444 
     38 C          27.3831  -48.1136  -54.9243 C.2       7 UNK         0.5104 
     39 O          26.2651  -47.6329  -55.1116 O.2       7 UNK        -0.5100 
     40 CA         28.5514  -47.1874  -54.5334 C.3       6 UNK         0.0396 
     41 CB         28.7804  -47.1932  -53.0151 C.3       6 UNK        -0.1801 
     42 N          29.7978  -47.5293  -55.2235 N.am      6 UNK        -0.4747 
     43 C          29.9721  -47.4326  -56.5506 C.2       6 UNK         0.5012 
     44 O          29.1251  -46.9791  -57.3193 O.2       6 UNK        -0.5003 
     45 CA         31.2828  -48.0067  -57.1235 C.3       5 UNK         0.0782 
     46 C46        32.4379  -46.9775  -57.1121 C.3       11 UNK        -0.0868 
     47 S47        32.2627  -45.7517  -58.4515 S.3       11 UNK        -0.2515 
     48 C48        32.9340  -44.2429  -57.6855 C.3       11 UNK         0.0199 
     49 N          31.6547  -49.2489  -56.4420 N.am      5 UNK        -0.4607 
     50 C          31.0291  -50.4202  -56.6220 C.2       4 UNK         0.5031 
     51 O          30.0901  -50.5755  -57.4002 O.2       4 UNK        -0.5119 
     52 CA         31.5040  -51.6129  -55.7739 C.3       4 UNK         0.0263 
     53 CB         32.6681  -52.3364  -56.4688 C.3       4 UNK        -0.1967 
     54 N          31.9046  -51.2290  -54.4191 N.am      4 UNK        -0.4237 
     55 C          31.0715  -50.7255  -53.4972 C.2       3 UNK         0.4908 
     56 O          29.8611  -50.5938  -53.6700 O.2       3 UNK        -0.5102 
     57 CA         31.6992  -50.2354  -52.1813 C.3       3 UNK         0.0241 
     58 CB         31.7387  -51.3718  -51.1475 C.3       3 UNK        -0.1971 
     59 N          33.0418  -49.6617  -52.3347 N.am      3 UNK        -0.4139 
     60 C          33.3461  -48.6237  -53.1259 C.2       2 UNK         0.5016 
     61 O          32.5333  -48.0562  -53.8597 O.2       2 UNK        -0.5319 
     62 CA         34.8038  -48.1423  -53.1067 C.3       2 UNK         0.0286 
     63 CB         35.3716  -48.0399  -54.5331 C.3       2 UNK        -0.1963 
     64 N          34.8731  -46.8322  -52.4661 N.am      2 UNK        -0.4790 
     65 C          34.7934  -46.6294  -51.1447 C.2       1 UNK         0.5024 
     66 O          34.7801  -47.5388  -50.3106 O.2       1 UNK        -0.4888 
     67 H67        38.1153  -43.8090  -48.1214 H         1 UNK         0.0892 
     68 H68        38.1581  -45.5625  -47.9175 H         1 UNK         0.0892 
     69 H69        36.7844  -44.6362  -47.3104 H         1 UNK         0.0892 
     70 H70        34.9851  -44.8859  -48.6172 H         1 UNK         0.3107 
     71 H71        35.0783  -44.5237  -51.4755 H         1 UNK         0.0773 
     72 H72        32.7634  -45.3475  -49.6440 H         1 UNK         0.0680 
     73 H73        33.1676  -43.7074  -50.0709 H         1 UNK         0.0680 
     74 H74        33.5698  -43.1398  -52.7904 H         1 UNK         0.0650 
     75 H75        32.0906  -42.4667  -52.1448 H         1 UNK         0.0650 
     76 H76        33.6360  -44.1488  -55.0524 H         1 UNK         0.1397 
     77 H77        30.3888  -43.2478  -57.7080 H         1 UNK         0.1363 
     78 H78        30.0353  -42.4071  -53.5156 H         1 UNK         0.1355 
     79 H79        28.4666  -42.0350  -56.9043 H         1 UNK         0.0707 
     80 H80        28.6010  -41.2270  -55.3658 H         1 UNK         0.0707 
     81 H81        27.3295  -44.8154  -56.9574 H         1 UNK         0.1034 
     82 H82        26.5598  -43.3148  -57.4093 H         1 UNK         0.1034 
     83 H83        25.3275  -45.1227  -55.2965 H         1 UNK         0.0482 
     84 H84        22.6374  -45.0466  -56.2915 H         1 UNK         0.3460 
     85 H85        22.0820  -43.4051  -56.0761 H         1 UNK         0.3460 
     86 H86        24.9249  -46.7056  -56.7183 H         1 UNK         0.2989 
     87 H87        23.2370  -47.3219  -58.5814 H         1 UNK         0.0559 
     88 H88        23.3063  -47.7315  -61.0363 H         1 UNK         0.0848 
     89 H89        24.5164  -46.4642  -61.2298 H         1 UNK         0.0848 
     90 H90        22.8977  -46.0616  -60.6811 H         1 UNK         0.0848 
     91 H91        24.7825  -48.9121  -58.4756 H         1 UNK         0.3144 
     92 H92        26.4567  -50.2858  -59.7279 H         1 UNK         0.0727 
     93 H93        28.9159  -50.5141  -59.8918 H         1 UNK         0.0790 
     94 H94        29.1207  -48.7871  -59.5977 H         1 UNK         0.0790 
     95 H95        28.3317  -49.3478  -61.0659 H         1 UNK         0.0790 
     96 H96        28.2125  -49.7433  -57.5176 H         1 UNK         0.3215 
     97 H97        25.8013  -50.3312  -54.9433 H         1 UNK         0.0863 
     98 H98        27.5027  -52.0169  -54.2870 H         1 UNK         0.0808 
     99 H99        28.1986  -51.9823  -55.9059 H         1 UNK         0.0808 
    100 H100       26.5692  -52.5934  -55.6586 H         1 UNK         0.0808 
    101 H101       28.5823  -49.7523  -54.7961 H         1 UNK         0.3118 
    102 H102       28.2814  -46.1717  -54.8279 H         1 UNK         0.0546 
    103 H103       29.0514  -48.1832  -52.6488 H         1 UNK         0.0828 
    104 H104       27.8780  -46.8847  -52.4860 H         1 UNK         0.0828 
    105 H105       29.5743  -46.5013  -52.7328 H         1 UNK         0.0828 
    106 H106       30.5665  -47.8772  -54.6595 H         1 UNK         0.3005 
    107 H107       31.0831  -48.2689  -58.1654 H         1 UNK         0.1257 
    108 H108       32.5146  -46.4875  -56.1402 H         1 UNK         0.0775 
    109 H109       33.3919  -47.4828  -57.2696 H         1 UNK         0.0775 
    110 H110       33.9664  -44.4284  -57.3845 H         1 UNK         0.0840 
    111 H111       32.9759  -43.4564  -58.4403 H         1 UNK         0.0840 
    112 H112       32.3455  -49.1637  -55.7080 H         1 UNK         0.2987 
    113 H113       30.6694  -52.3120  -55.6901 H         1 UNK         0.0785 
    114 H114       32.3853  -52.6514  -57.4744 H         1 UNK         0.0798 
    115 H115       32.9620  -53.2325  -55.9218 H         1 UNK         0.0798 
    116 H116       33.5460  -51.6958  -56.5630 H         1 UNK         0.0798 
    117 H117       32.8840  -51.3092  -54.1885 H         1 UNK         0.3079 
    118 H118       31.0550  -49.4442  -51.7926 H         1 UNK         0.0794 
    119 H119       30.7459  -51.8000  -51.0007 H         1 UNK         0.0786 
    120 H120       32.0805  -51.0133  -50.1763 H         1 UNK         0.0786 
    121 H121       32.3999  -52.1811  -51.4598 H         1 UNK         0.0786 
    122 H122       33.7656  -50.0495  -51.7460 H         1 UNK         0.3032 
    123 H123       35.4160  -48.8517  -52.5448 H         1 UNK         0.1094 
    124 H124       35.3085  -48.9987  -55.0494 H         1 UNK         0.0794 
    125 H125       34.8313  -47.3084  -55.1350 H         1 UNK         0.0794 
    126 H126       36.4221  -47.7488  -54.5197 H         1 UNK         0.0794 
    127 H127       34.8236  -46.0334  -53.0812 H         1 UNK         0.3016 
@<TRIPOS>BOND
     1    1    2 1    
     2    1   67 1    
     3    1   68 1    
     4    1   69 1    
     5    2    3 2    
     6    2    4 am   BACKBONE|DICT|INTERRES
     7    4    5 1    
     8    4   70 1    
     9    5    6 1    
    10    5   65 1    
    11    5   71 1    
    12    6    7 1    
    13    6   72 1    
    14    6   73 1    
    15    7    8 1    
    16    8    9 1    
    17    8   74 1    
    18    8   75 1    
    19    9   10 ar   
    20    9   14 ar   
    21   10   11 ar   
    22   10   76 1    
    23   11   12 ar   
    24   11   48 1    
    25   12   13 ar   
    26   12   77 1    
    27   13   14 ar   
    28   13   15 1    
    29   14   78 1    
    30   15   16 1    
    31   15   79 1    
    32   15   80 1    
    33   16   17 1    
    34   17   18 1    
    35   17   81 1    
    36   17   82 1    
    37   18   19 1    
    38   18   22 1    
    39   18   83 1    
    40   19   20 am   BACKBONE|DICT|INTERRES
    41   19   21 2    
    42   20   84 1    
    43   20   85 1    
    44   22   23 am   BACKBONE|DICT|INTERRES
    45   22   86 1    
    46   23   24 2    
    47   23   25 1    
    48   25   26 1    
    49   25   27 1    
    50   25   87 1    
    51   26   88 1    
    52   26   89 1    
    53   26   90 1    
    54   27   28 am   BACKBONE|DICT|INTERRES
    55   27   91 1    
    56   28   29 2    
    57   28   30 1    
    58   30   31 1    
    59   30   32 1    
    60   30   92 1    
    61   31   93 1    
    62   31   94 1    
    63   31   95 1    
    64   32   33 am   BACKBONE|DICT|INTERRES
    65   32   96 1    
    66   33   34 2    
    67   33   35 1    
    68   35   36 1    
    69   35   37 1    
    70   35   97 1    
    71   36   98 1    
    72   36   99 1    
    73   36  100 1    
    74   37   38 am   BACKBONE|DICT|INTERRES
    75   37  101 1    
    76   38   39 2    
    77   38   40 1    
    78   40   41 1    
    79   40   42 1    
    80   40  102 1    
    81   41  103 1    
    82   41  104 1    
    83   41  105 1    
    84   42   43 am   BACKBONE|DICT|INTERRES
    85   42  106 1    
    86   43   44 2    
    87   43   45 1    
    88   45   46 1    
    89   45   49 1    
    90   45  107 1    
    91   46   47 1    
    92   46  108 1    
    93   46  109 1    
    94   47   48 1    
    95   48  110 1    
    96   48  111 1    
    97   49   50 am   BACKBONE|DICT|INTERRES
    98   49  112 1    
    99   50   51 2    
   100   50   52 1    
   101   52   53 1    
   102   52   54 1    
   103   52  113 1    
   104   53  114 1    
   105   53  115 1    
   106   53  116 1    
   107   54   55 am   BACKBONE|DICT|INTERRES
   108   54  117 1    
   109   55   56 2    
   110   55   57 1    
   111   57   58 1    
   112   57   59 1    
   113   57  118 1    
   114   58  119 1    
   115   58  120 1    
   116   58  121 1    
   117   59   60 am   BACKBONE|DICT|INTERRES
   118   59  122 1    
   119   60   61 2    
   120   60   62 1    
   121   62   63 1    
   122   62   64 1    
   123   62  123 1    
   124   63  124 1    
   125   63  125 1    
   126   63  126 1    
   127   64   65 am   BACKBONE|DICT|INTERRES
   128   64  127 1    
   129   65   66 2    
@<TRIPOS>SUBSTRUCTURE
     1 UNK         1 GROUP             0       ****    0 ROOT    
