@<TRIPOS>MOLECULE
3R134
127   129    1
SMALL
USER_CHARGES


@<TRIPOS>ATOM
      1 CA         33.0433  -47.0144  -57.4572 C.3       0 UNK        -0.1968 
      2 C          33.3892  -46.7268  -56.0050 C.2       0 UNK         0.4852 
      3 O          32.9802  -47.4844  -55.1229 O.2       0 UNK        -0.5359 
      4 N          34.1364  -45.6461  -55.7428 N.am      1 UNK        -0.4300 
      5 CA         34.5138  -45.2021  -54.3975 C.3       1 UNK         0.0863 
      6 C6         35.2598  -43.8451  -54.3956 C.3       11 UNK        -0.0953 
      7 S7         34.3086  -42.4987  -55.1766 S.3       11 UNK        -0.2369 
      8 C8         33.5053  -41.7209  -53.7386 C.3       11 UNK         0.0226 
      9 C9         32.3179  -42.5382  -53.2523 C.ar      11 UNK        -0.0699 
     10 C10        32.4422  -43.3923  -52.1525 C.ar      11 UNK        -0.0804 
     11 C11        31.3570  -44.1674  -51.7302 C.ar      11 UNK        -0.0871 
     12 C12        30.1281  -44.0474  -52.3875 C.ar      11 UNK        -0.1008 
     13 C13        29.9971  -43.2066  -53.4955 C.ar      11 UNK        -0.0735 
     14 C14        31.0935  -42.4512  -53.9198 C.ar      11 UNK        -0.0945 
     15 C15        28.6849  -43.1276  -54.2574 C.3       11 UNK         0.0169 
     16 S16        28.6729  -44.3241  -55.6306 S.3       11 UNK        -0.2669 
     17 C17        27.6194  -43.4707  -56.8579 C.3       11 UNK        -0.0850 
     18 CA         26.4998  -44.3785  -57.4438 C.3       10 UNK         0.0855 
     19 C          25.5028  -43.5961  -58.3554 C.2       10 UNK         0.5543 
     20 N          24.9412  -44.1958  -59.3995 N.am      10 UNK        -0.7343 
     21 O          25.2030  -42.4335  -58.0945 O.2       10 UNK        -0.5027 
     22 N          27.0097  -45.6280  -58.0355 N.am      10 UNK        -0.4495 
     23 C          27.8048  -45.7345  -59.1100 C.2       10 UNK         0.4903 
     24 O          28.3161  -44.7785  -59.6934 O.2       10 UNK        -0.4860 
     25 CA         28.0411  -47.1551  -59.6572 C.3       9 UNK         0.0227 
     26 CB         29.3713  -47.7154  -59.1303 C.3       9 UNK        -0.1964 
     27 N          26.9626  -48.1024  -59.3503 N.am      9 UNK        -0.4231 
     28 C          25.6782  -47.9907  -59.7159 C.2       9 UNK         0.5014 
     29 O          25.2396  -47.0515  -60.3815 O.2       9 UNK        -0.5270 
     30 CA         24.7008  -49.0729  -59.2182 C.3       8 UNK         0.0284 
     31 CB         24.6786  -50.2831  -60.1724 C.3       8 UNK        -0.1977 
     32 N          24.9050  -49.4829  -57.8183 N.am      8 UNK        -0.4342 
     33 C          25.9397  -50.1421  -57.2785 C.2       8 UNK         0.5039 
     34 O          26.9281  -50.5117  -57.9150 O.2       8 UNK        -0.5547 
     35 CA         25.8907  -50.3291  -55.7584 C.3       7 UNK         0.0281 
     36 CB         26.8570  -51.4199  -55.2621 C.3       7 UNK        -0.1963 
     37 N          26.2377  -49.0567  -55.1286 N.am      7 UNK        -0.4444 
     38 C          25.3533  -48.1565  -54.6791 C.2       7 UNK         0.5104 
     39 O          24.1348  -48.3084  -54.7797 O.2       7 UNK        -0.5100 
     40 CA         25.8995  -46.8562  -54.0477 C.3       6 UNK         0.0396 
     41 CB         25.0787  -46.4145  -52.8183 C.3       6 UNK        -0.1801 
     42 N          27.3359  -46.8780  -53.7405 N.am      6 UNK        -0.4747 
     43 C          27.9699  -47.6715  -52.8634 C.2       6 UNK         0.5012 
     44 O          27.4086  -48.5016  -52.1461 O.2       6 UNK        -0.5003 
     45 CA         29.5064  -47.5417  -52.8108 C.3       5 UNK         0.0782 
     46 C46        29.9737  -47.3948  -51.3402 C.3       11 UNK        -0.0868 
     47 S47        31.7095  -46.8595  -51.1871 S.3       11 UNK        -0.2515 
     48 C48        31.5241  -45.1484  -50.5795 C.3       11 UNK         0.0199 
     49 N          30.1675  -48.6656  -53.4870 N.am      5 UNK        -0.4607 
     50 C          29.9433  -49.0789  -54.7439 C.2       4 UNK         0.5031 
     51 O          29.1269  -48.5534  -55.5024 O.2       4 UNK        -0.5119 
     52 CA         30.7765  -50.2738  -55.2311 C.3       4 UNK         0.0263 
     53 CB         30.6696  -50.5044  -56.7530 C.3       4 UNK        -0.1967 
     54 N          32.1763  -50.0787  -54.8651 N.am      4 UNK        -0.4237 
     55 C          33.0499  -51.0517  -54.5825 C.2       3 UNK         0.4908 
     56 O          32.7516  -52.2457  -54.5379 O.2       3 UNK        -0.5102 
     57 CA         34.5009  -50.6345  -54.3053 C.3       3 UNK         0.0241 
     58 CB         35.2716  -50.4456  -55.6232 C.3       3 UNK        -0.1971 
     59 N          34.5790  -49.4027  -53.5153 N.am      3 UNK        -0.4139 
     60 C          35.3217  -49.2483  -52.4096 C.2       2 UNK         0.5016 
     61 O          36.0130  -50.1466  -51.9252 O.2       2 UNK        -0.5319 
     62 CA         35.2833  -47.8734  -51.7072 C.3       2 UNK         0.0286 
     63 CB         36.6350  -47.4966  -51.0629 C.3       2 UNK        -0.1963 
     64 N          34.7773  -46.7807  -52.5493 N.am      2 UNK        -0.4790 
     65 C          35.3357  -46.2766  -53.6596 C.2       1 UNK         0.5024 
     66 O          36.4201  -46.6364  -54.1217 O.2       1 UNK        -0.4888 
     67 H67        33.4643  -46.2702  -58.1329 H         1 UNK         0.0892 
     68 H68        33.4222  -47.9937  -57.7475 H         1 UNK         0.0892 
     69 H69        31.9614  -47.0160  -57.5835 H         1 UNK         0.0892 
     70 H70        34.4590  -45.0608  -56.4996 H         1 UNK         0.3107 
     71 H71        33.5752  -45.0724  -53.8592 H         1 UNK         0.0773 
     72 H72        36.2073  -43.9332  -54.9308 H         1 UNK         0.0680 
     73 H73        35.5182  -43.5505  -53.3768 H         1 UNK         0.0680 
     74 H74        33.1639  -40.7254  -54.0264 H         1 UNK         0.0650 
     75 H75        34.2323  -41.5716  -52.9389 H         1 UNK         0.0650 
     76 H76        33.3932  -43.4732  -51.6437 H         1 UNK         0.1397 
     77 H77        29.2796  -44.6291  -52.0571 H         1 UNK         0.1363 
     78 H78        30.9995  -41.8067  -54.7833 H         1 UNK         0.1355 
     79 H79        27.8391  -43.3237  -53.5963 H         1 UNK         0.0707 
     80 H80        28.5544  -42.1126  -54.6356 H         1 UNK         0.0707 
     81 H81        27.1720  -42.5926  -56.3901 H         1 UNK         0.1034 
     82 H82        28.2588  -43.0862  -57.6537 H         1 UNK         0.1034 
     83 H83        25.8826  -44.6947  -56.6043 H         1 UNK         0.0482 
     84 H84        24.2909  -43.6783  -59.9691 H         1 UNK         0.3460 
     85 H85        25.1640  -45.1554  -59.6395 H         1 UNK         0.3460 
     86 H86        26.6465  -46.4809  -57.6396 H         1 UNK         0.2989 
     87 H87        28.1067  -47.0803  -60.7444 H         1 UNK         0.0559 
     88 H88        30.2023  -47.0626  -59.4006 H         1 UNK         0.0848 
     89 H89        29.5841  -48.7002  -59.5463 H         1 UNK         0.0848 
     90 H90        29.3659  -47.8041  -58.0436 H         1 UNK         0.0848 
     91 H91        27.2099  -48.9352  -58.8163 H         1 UNK         0.3144 
     92 H92        23.7066  -48.6237  -59.2451 H         1 UNK         0.0727 
     93 H93        23.9391  -51.0204  -59.8602 H         1 UNK         0.0790 
     94 H94        25.6469  -50.7816  -60.2264 H         1 UNK         0.0790 
     95 H95        24.4193  -49.9731  -61.1855 H         1 UNK         0.0790 
     96 H96        24.1831  -49.1751  -57.1782 H         1 UNK         0.3215 
     97 H97        24.8789  -50.6342  -55.4820 H         1 UNK         0.0863 
     98 H98        26.7948  -51.5402  -54.1805 H         1 UNK         0.0808 
     99 H99        27.8919  -51.1931  -55.5129 H         1 UNK         0.0808 
    100 H100       26.6180  -52.3842  -55.7122 H         1 UNK         0.0808 
    101 H101       27.2270  -48.8221  -55.1040 H         1 UNK         0.3118 
    102 H102       25.7757  -46.0870  -54.8082 H         1 UNK         0.0546 
    103 H103       25.0889  -47.1680  -52.0304 H         1 UNK         0.0828 
    104 H104       24.0354  -46.2417  -53.0850 H         1 UNK         0.0828 
    105 H105       25.4610  -45.4840  -52.3991 H         1 UNK         0.0828 
    106 H106       27.9012  -46.2735  -54.3253 H         1 UNK         0.3005 
    107 H107       29.7926  -46.6414  -53.3581 H         1 UNK         0.1257 
    108 H108       29.8658  -48.3442  -50.8122 H         1 UNK         0.0775 
    109 H109       29.3393  -46.6907  -50.7989 H         1 UNK         0.0775 
    110 H110       30.6841  -45.0706  -49.8879 H         1 UNK         0.0840 
    111 H111       32.4104  -44.8940  -49.9960 H         1 UNK         0.0840 
    112 H112       30.8572  -49.1578  -52.9392 H         1 UNK         0.2987 
    113 H113       30.3831  -51.1536  -54.7177 H         1 UNK         0.0785 
    114 H114       31.2171  -51.3957  -57.0587 H         1 UNK         0.0798 
    115 H115       31.0692  -49.6580  -57.3122 H         1 UNK         0.0798 
    116 H116       29.6336  -50.6407  -57.0652 H         1 UNK         0.0798 
    117 H117       32.4936  -49.1077  -54.9043 H         1 UNK         0.3079 
    118 H118       34.9627  -51.4608  -53.7607 H         1 UNK         0.0794 
    119 H119       35.2265  -51.3467  -56.2364 H         1 UNK         0.0786 
    120 H120       36.3242  -50.2322  -55.4363 H         1 UNK         0.0786 
    121 H121       34.8655  -49.6248  -56.2152 H         1 UNK         0.0786 
    122 H122       34.0471  -48.6076  -53.8553 H         1 UNK         0.3032 
    123 H123       34.5615  -47.9856  -50.8966 H         1 UNK         0.1094 
    124 H124       36.5819  -46.5280  -50.5661 H         1 UNK         0.0794 
    125 H125       36.9266  -48.2285  -50.3086 H         1 UNK         0.0794 
    126 H126       37.4389  -47.4545  -51.7982 H         1 UNK         0.0794 
    127 H127       33.8574  -46.4449  -52.2898 H         1 UNK         0.3016 
@<TRIPOS>BOND
     1    1    2 1    
     2    1   67 1    
     3    1   68 1    
     4    1   69 1    
     5    2    3 2    
     6    2    4 am   BACKBONE|DICT|INTERRES
     7    4    5 1    
     8    4   70 1    
     9    5    6 1    
    10    5   65 1    
    11    5   71 1    
    12    6    7 1    
    13    6   72 1    
    14    6   73 1    
    15    7    8 1    
    16    8    9 1    
    17    8   74 1    
    18    8   75 1    
    19    9   10 ar   
    20    9   14 ar   
    21   10   11 ar   
    22   10   76 1    
    23   11   12 ar   
    24   11   48 1    
    25   12   13 ar   
    26   12   77 1    
    27   13   14 ar   
    28   13   15 1    
    29   14   78 1    
    30   15   16 1    
    31   15   79 1    
    32   15   80 1    
    33   16   17 1    
    34   17   18 1    
    35   17   81 1    
    36   17   82 1    
    37   18   19 1    
    38   18   22 1    
    39   18   83 1    
    40   19   20 am   BACKBONE|DICT|INTERRES
    41   19   21 2    
    42   20   84 1    
    43   20   85 1    
    44   22   23 am   BACKBONE|DICT|INTERRES
    45   22   86 1    
    46   23   24 2    
    47   23   25 1    
    48   25   26 1    
    49   25   27 1    
    50   25   87 1    
    51   26   88 1    
    52   26   89 1    
    53   26   90 1    
    54   27   28 am   BACKBONE|DICT|INTERRES
    55   27   91 1    
    56   28   29 2    
    57   28   30 1    
    58   30   31 1    
    59   30   32 1    
    60   30   92 1    
    61   31   93 1    
    62   31   94 1    
    63   31   95 1    
    64   32   33 am   BACKBONE|DICT|INTERRES
    65   32   96 1    
    66   33   34 2    
    67   33   35 1    
    68   35   36 1    
    69   35   37 1    
    70   35   97 1    
    71   36   98 1    
    72   36   99 1    
    73   36  100 1    
    74   37   38 am   BACKBONE|DICT|INTERRES
    75   37  101 1    
    76   38   39 2    
    77   38   40 1    
    78   40   41 1    
    79   40   42 1    
    80   40  102 1    
    81   41  103 1    
    82   41  104 1    
    83   41  105 1    
    84   42   43 am   BACKBONE|DICT|INTERRES
    85   42  106 1    
    86   43   44 2    
    87   43   45 1    
    88   45   46 1    
    89   45   49 1    
    90   45  107 1    
    91   46   47 1    
    92   46  108 1    
    93   46  109 1    
    94   47   48 1    
    95   48  110 1    
    96   48  111 1    
    97   49   50 am   BACKBONE|DICT|INTERRES
    98   49  112 1    
    99   50   51 2    
   100   50   52 1    
   101   52   53 1    
   102   52   54 1    
   103   52  113 1    
   104   53  114 1    
   105   53  115 1    
   106   53  116 1    
   107   54   55 am   BACKBONE|DICT|INTERRES
   108   54  117 1    
   109   55   56 2    
   110   55   57 1    
   111   57   58 1    
   112   57   59 1    
   113   57  118 1    
   114   58  119 1    
   115   58  120 1    
   116   58  121 1    
   117   59   60 am   BACKBONE|DICT|INTERRES
   118   59  122 1    
   119   60   61 2    
   120   60   62 1    
   121   62   63 1    
   122   62   64 1    
   123   62  123 1    
   124   63  124 1    
   125   63  125 1    
   126   63  126 1    
   127   64   65 am   BACKBONE|DICT|INTERRES
   128   64  127 1    
   129   65   66 2    
@<TRIPOS>SUBSTRUCTURE
     1 UNK         1 GROUP             0       ****    0 ROOT    
