@<TRIPOS>MOLECULE
3R134
127   129    1
SMALL
USER_CHARGES


@<TRIPOS>ATOM
      1 CA         32.7978  -42.0045  -52.3031 C.3       0 UNK        -0.1968 
      2 C          34.0364  -42.7166  -52.8229 C.2       0 UNK         0.4852 
      3 O          35.1265  -42.5195  -52.2843 O.2       0 UNK        -0.5359 
      4 N          33.8783  -43.5388  -53.8700 N.am      1 UNK        -0.4300 
      5 CA         34.9641  -44.2949  -54.5073 C.3       1 UNK         0.0863 
      6 C6         34.6111  -44.6896  -55.9672 C.3       11 UNK        -0.0953 
      7 S7         33.4737  -46.1067  -56.1726 S.3       11 UNK        -0.2369 
      8 C8         31.8572  -45.3010  -56.4257 C.3       11 UNK         0.0226 
      9 C9         31.1875  -44.8410  -55.1345 C.ar      11 UNK        -0.0699 
     10 C10        31.2547  -45.6117  -53.9680 C.ar      11 UNK        -0.0804 
     11 C11        30.6240  -45.1923  -52.7918 C.ar      11 UNK        -0.0871 
     12 C12        29.8941  -44.0004  -52.8015 C.ar      11 UNK        -0.1008 
     13 C13        29.8085  -43.2228  -53.9601 C.ar      11 UNK        -0.0735 
     14 C14        30.4644  -43.6451  -55.1202 C.ar      11 UNK        -0.0945 
     15 C15        29.0365  -41.9108  -53.9371 C.3       11 UNK         0.0169 
     16 S16        27.3280  -42.1135  -54.5325 S.3       11 UNK        -0.2669 
     17 C17        27.5290  -41.7008  -56.2990 C.3       11 UNK        -0.0850 
     18 CA         26.2941  -42.0789  -57.1679 C.3       10 UNK         0.0855 
     19 C          26.4071  -41.5293  -58.6239 C.2       10 UNK         0.5543 
     20 N          25.9300  -42.2378  -59.6401 N.am      10 UNK        -0.7343 
     21 O          26.9034  -40.4253  -58.8364 O.2       10 UNK        -0.5027 
     22 N          25.9169  -43.5035  -57.0762 N.am      10 UNK        -0.4495 
     23 C          26.6773  -44.5523  -57.4190 C.2       10 UNK         0.4903 
     24 O          27.8449  -44.4543  -57.8023 O.2       10 UNK        -0.4860 
     25 CA         25.9955  -45.9321  -57.2923 C.3       9 UNK         0.0227 
     26 CB         24.6958  -46.0203  -58.1230 C.3       9 UNK        -0.1964 
     27 N          26.8817  -47.0622  -57.5989 N.am      9 UNK        -0.4231 
     28 C          27.4618  -47.3655  -58.7719 C.2       9 UNK         0.5014 
     29 O          27.2756  -46.7540  -59.8257 O.2       9 UNK        -0.5270 
     30 CA         28.4098  -48.5761  -58.7745 C.3       8 UNK         0.0284 
     31 CB         29.7712  -48.2083  -58.1624 C.3       8 UNK        -0.1977 
     32 N          27.8622  -49.7356  -58.0718 N.am      8 UNK        -0.4342 
     33 C          26.8198  -50.4676  -58.4879 C.2       8 UNK         0.5039 
     34 O          26.1879  -50.2454  -59.5214 O.2       8 UNK        -0.5547 
     35 CA         26.4213  -51.6570  -57.6032 C.3       7 UNK         0.0281 
     36 CB         27.3574  -52.8531  -57.8449 C.3       7 UNK        -0.1963 
     37 N          26.4454  -51.2917  -56.1867 N.am      7 UNK        -0.4444 
     38 C          25.4062  -50.7617  -55.5284 C.2       7 UNK         0.5104 
     39 O          24.2968  -50.5797  -56.0310 O.2       7 UNK        -0.5100 
     40 CA         25.6295  -50.3735  -54.0549 C.3       6 UNK         0.0396 
     41 CB         25.1656  -51.5080  -53.1276 C.3       6 UNK        -0.1801 
     42 N          27.0161  -50.0246  -53.7323 N.am      6 UNK        -0.4747 
     43 C          27.6506  -48.9320  -54.1813 C.2       6 UNK         0.5012 
     44 O          27.1480  -48.1138  -54.9504 O.2       6 UNK        -0.5003 
     45 CA         29.1089  -48.7436  -53.7221 C.3       5 UNK         0.0782 
     46 C46        29.1325  -48.1487  -52.2918 C.3       11 UNK        -0.0868 
     47 S47        30.8192  -47.7882  -51.6986 S.3       11 UNK        -0.2515 
     48 C48        30.7544  -45.9776  -51.4880 C.3       11 UNK         0.0199 
     49 N          29.9307  -49.9594  -53.8268 N.am      5 UNK        -0.4607 
     50 C          30.0347  -50.7813  -54.8798 C.2       4 UNK         0.5031 
     51 O          29.3511  -50.6825  -55.8994 O.2       4 UNK        -0.5119 
     52 CA         31.1182  -51.8703  -54.7894 C.3       4 UNK         0.0263 
     53 CB         30.9498  -52.9573  -55.8674 C.3       4 UNK        -0.1967 
     54 N          32.4456  -51.2667  -54.9229 N.am      4 UNK        -0.4237 
     55 C          33.0931  -50.6201  -53.9448 C.2       3 UNK         0.4908 
     56 O          32.6705  -50.5692  -52.7875 O.2       3 UNK        -0.5102 
     57 CA         34.4064  -49.9012  -54.3156 C.3       3 UNK         0.0241 
     58 CB         34.5664  -49.6450  -55.8289 C.3       3 UNK        -0.1971 
     59 N          34.4823  -48.6216  -53.6087 N.am      3 UNK        -0.4139 
     60 C          35.0516  -48.4319  -52.4108 C.2       2 UNK         0.5016 
     61 O          35.6927  -49.3000  -51.8141 O.2       2 UNK        -0.5319 
     62 CA         34.8553  -47.0463  -51.7588 C.3       2 UNK         0.0286 
     63 CB         35.9917  -46.6807  -50.7797 C.3       2 UNK        -0.1963 
     64 N          34.6197  -45.9523  -52.7130 N.am      2 UNK        -0.4790 
     65 C          35.4579  -45.4896  -53.6566 C.2       1 UNK         0.5024 
     66 O          36.5749  -45.9601  -53.8748 O.2       1 UNK        -0.4888 
     67 H67        32.1036  -41.7800  -53.1117 H         1 UNK         0.0892 
     68 H68        32.2872  -42.6225  -51.5653 H         1 UNK         0.0892 
     69 H69        33.0699  -41.0618  -51.8289 H         1 UNK         0.0892 
     70 H70        32.9567  -43.6770  -54.2640 H         1 UNK         0.3107 
     71 H71        35.8158  -43.6140  -54.5745 H         1 UNK         0.0773 
     72 H72        35.5312  -44.9527  -56.4920 H         1 UNK         0.0680 
     73 H73        34.2168  -43.8262  -56.5051 H         1 UNK         0.0680 
     74 H74        31.1920  -46.0135  -56.9106 H         1 UNK         0.0650 
     75 H75        31.9757  -44.4709  -57.1239 H         1 UNK         0.0650 
     76 H76        31.8073  -46.5398  -53.9753 H         1 UNK         0.1397 
     77 H77        29.4020  -43.6649  -51.8985 H         1 UNK         0.1363 
     78 H78        30.4068  -43.0459  -56.0177 H         1 UNK         0.1355 
     79 H79        29.0029  -41.5192  -52.9192 H         1 UNK         0.0707 
     80 H80        29.5557  -41.1556  -54.5293 H         1 UNK         0.0707 
     81 H81        27.7195  -40.6275  -56.3571 H         1 UNK         0.1034 
     82 H82        28.4245  -42.1824  -56.6893 H         1 UNK         0.1034 
     83 H83        25.4426  -41.5409  -56.7498 H         1 UNK         0.0482 
     84 H84        25.5202  -43.1439  -59.4817 H         1 UNK         0.3460 
     85 H85        25.9970  -41.8683  -60.5753 H         1 UNK         0.3460 
     86 H86        24.9748  -43.6756  -56.7570 H         1 UNK         0.2989 
     87 H87        25.7289  -46.0492  -56.2409 H         1 UNK         0.0559 
     88 H88        24.8712  -45.8062  -59.1777 H         1 UNK         0.0848 
     89 H89        23.9441  -45.3144  -57.7695 H         1 UNK         0.0848 
     90 H90        24.2527  -47.0142  -58.0557 H         1 UNK         0.0848 
     91 H91        27.1230  -47.6245  -56.7864 H         1 UNK         0.3144 
     92 H92        28.5752  -48.8662  -59.8143 H         1 UNK         0.0727 
     93 H93        29.6799  -47.9384  -57.1095 H         1 UNK         0.0790 
     94 H94        30.2140  -47.3596  -58.6850 H         1 UNK         0.0790 
     95 H95        30.4758  -49.0373  -58.2333 H         1 UNK         0.0790 
     96 H96        28.3549  -50.0315  -57.2297 H         1 UNK         0.3215 
     97 H97        25.4104  -51.9621  -57.8836 H         1 UNK         0.0863 
     98 H98        27.0681  -53.7120  -57.2392 H         1 UNK         0.0808 
     99 H99        28.3951  -52.6128  -57.6125 H         1 UNK         0.0808 
    100 H100       27.3235  -53.1667  -58.8891 H         1 UNK         0.0808 
    101 H101       27.3419  -51.3407  -55.7182 H         1 UNK         0.3118 
    102 H102       25.0101  -49.4969  -53.8527 H         1 UNK         0.0546 
    103 H103       25.7607  -52.4118  -53.2648 H         1 UNK         0.0828 
    104 H104       24.1251  -51.7712  -53.3236 H         1 UNK         0.0828 
    105 H105       25.2310  -51.2170  -52.0791 H         1 UNK         0.0828 
    106 H106       27.5173  -50.6532  -53.1206 H         1 UNK         0.3005 
    107 H107       29.5528  -48.0119  -54.4003 H         1 UNK         0.1257 
    108 H108       28.6737  -48.8388  -51.5811 H         1 UNK         0.0775 
    109 H109       28.5366  -47.2343  -52.2506 H         1 UNK         0.0775 
    110 H110       29.9315  -45.7378  -50.8126 H         1 UNK         0.0840 
    111 H111       31.6655  -45.6554  -50.9829 H         1 UNK         0.0840 
    112 H112       30.5933  -50.0955  -53.0708 H         1 UNK         0.2987 
    113 H113       31.0325  -52.3516  -53.8126 H         1 UNK         0.0785 
    114 H114       29.9738  -53.4374  -55.7858 H         1 UNK         0.0798 
    115 H115       31.7026  -53.7386  -55.7628 H         1 UNK         0.0798 
    116 H116       31.0295  -52.5481  -56.8755 H         1 UNK         0.0798 
    117 H117       32.8379  -51.2461  -55.8531 H         1 UNK         0.3079 
    118 H118       35.2276  -50.5461  -53.9962 H         1 UNK         0.0794 
    119 H119       35.4549  -49.0464  -56.0327 H         1 UNK         0.0786 
    120 H120       33.7106  -49.1138  -56.2475 H         1 UNK         0.0786 
    121 H121       34.6844  -50.5781  -56.3811 H         1 UNK         0.0786 
    122 H122       33.9784  -47.8497  -54.0193 H         1 UNK         0.3032 
    123 H123       33.9399  -47.1353  -51.1713 H         1 UNK         0.1094 
    124 H124       35.8210  -45.7074  -50.3193 H         1 UNK         0.0794 
    125 H125       36.9614  -46.6513  -51.2774 H         1 UNK         0.0794 
    126 H126       36.0640  -47.4102  -49.9721 H         1 UNK         0.0794 
    127 H127       33.7305  -45.4817  -52.6262 H         1 UNK         0.3016 
@<TRIPOS>BOND
     1    1    2 1    
     2    1   67 1    
     3    1   68 1    
     4    1   69 1    
     5    2    3 2    
     6    2    4 am   BACKBONE|DICT|INTERRES
     7    4    5 1    
     8    4   70 1    
     9    5    6 1    
    10    5   65 1    
    11    5   71 1    
    12    6    7 1    
    13    6   72 1    
    14    6   73 1    
    15    7    8 1    
    16    8    9 1    
    17    8   74 1    
    18    8   75 1    
    19    9   10 ar   
    20    9   14 ar   
    21   10   11 ar   
    22   10   76 1    
    23   11   12 ar   
    24   11   48 1    
    25   12   13 ar   
    26   12   77 1    
    27   13   14 ar   
    28   13   15 1    
    29   14   78 1    
    30   15   16 1    
    31   15   79 1    
    32   15   80 1    
    33   16   17 1    
    34   17   18 1    
    35   17   81 1    
    36   17   82 1    
    37   18   19 1    
    38   18   22 1    
    39   18   83 1    
    40   19   20 am   BACKBONE|DICT|INTERRES
    41   19   21 2    
    42   20   84 1    
    43   20   85 1    
    44   22   23 am   BACKBONE|DICT|INTERRES
    45   22   86 1    
    46   23   24 2    
    47   23   25 1    
    48   25   26 1    
    49   25   27 1    
    50   25   87 1    
    51   26   88 1    
    52   26   89 1    
    53   26   90 1    
    54   27   28 am   BACKBONE|DICT|INTERRES
    55   27   91 1    
    56   28   29 2    
    57   28   30 1    
    58   30   31 1    
    59   30   32 1    
    60   30   92 1    
    61   31   93 1    
    62   31   94 1    
    63   31   95 1    
    64   32   33 am   BACKBONE|DICT|INTERRES
    65   32   96 1    
    66   33   34 2    
    67   33   35 1    
    68   35   36 1    
    69   35   37 1    
    70   35   97 1    
    71   36   98 1    
    72   36   99 1    
    73   36  100 1    
    74   37   38 am   BACKBONE|DICT|INTERRES
    75   37  101 1    
    76   38   39 2    
    77   38   40 1    
    78   40   41 1    
    79   40   42 1    
    80   40  102 1    
    81   41  103 1    
    82   41  104 1    
    83   41  105 1    
    84   42   43 am   BACKBONE|DICT|INTERRES
    85   42  106 1    
    86   43   44 2    
    87   43   45 1    
    88   45   46 1    
    89   45   49 1    
    90   45  107 1    
    91   46   47 1    
    92   46  108 1    
    93   46  109 1    
    94   47   48 1    
    95   48  110 1    
    96   48  111 1    
    97   49   50 am   BACKBONE|DICT|INTERRES
    98   49  112 1    
    99   50   51 2    
   100   50   52 1    
   101   52   53 1    
   102   52   54 1    
   103   52  113 1    
   104   53  114 1    
   105   53  115 1    
   106   53  116 1    
   107   54   55 am   BACKBONE|DICT|INTERRES
   108   54  117 1    
   109   55   56 2    
   110   55   57 1    
   111   57   58 1    
   112   57   59 1    
   113   57  118 1    
   114   58  119 1    
   115   58  120 1    
   116   58  121 1    
   117   59   60 am   BACKBONE|DICT|INTERRES
   118   59  122 1    
   119   60   61 2    
   120   60   62 1    
   121   62   63 1    
   122   62   64 1    
   123   62  123 1    
   124   63  124 1    
   125   63  125 1    
   126   63  126 1    
   127   64   65 am   BACKBONE|DICT|INTERRES
   128   64  127 1    
   129   65   66 2    
@<TRIPOS>SUBSTRUCTURE
     1 UNK         1 GROUP             0       ****    0 ROOT    
