@<TRIPOS>MOLECULE
3R134
127   129    1
SMALL
USER_CHARGES


@<TRIPOS>ATOM
      1 CA         36.6975  -47.2083  -55.0863 C.3       0 UNK        -0.1968 
      2 C          35.4267  -46.7813  -54.3691 C.2       0 UNK         0.4852 
      3 O          34.3851  -47.4162  -54.5495 O.2       0 UNK        -0.5359 
      4 N          35.5062  -45.7276  -53.5437 N.am      1 UNK        -0.4300 
      5 CA         34.4069  -45.1050  -52.7872 C.3       1 UNK         0.0863 
      6 C6         34.7770  -43.6675  -52.3346 C.3       11 UNK        -0.0953 
      7 S7         35.1153  -42.5556  -53.7430 S.3       11 UNK        -0.2369 
      8 C8         33.6264  -41.5052  -53.7653 C.3       11 UNK         0.0226 
      9 C9         32.3985  -42.2660  -54.2448 C.ar      11 UNK        -0.0699 
     10 C10        31.5224  -42.8462  -53.3222 C.ar      11 UNK        -0.0804 
     11 C11        30.4048  -43.5639  -53.7581 C.ar      11 UNK        -0.0871 
     12 C12        30.1525  -43.6785  -55.1269 C.ar      11 UNK        -0.1008 
     13 C13        31.0062  -43.0811  -56.0582 C.ar      11 UNK        -0.0735 
     14 C14        32.1326  -42.3826  -55.6130 C.ar      11 UNK        -0.0945 
     15 C15        30.6988  -43.1882  -57.5421 C.3       11 UNK         0.0169 
     16 S16        29.5863  -41.8449  -58.0633 S.3       11 UNK        -0.2669 
     17 C17        28.7687  -42.5980  -59.5119 C.3       11 UNK        -0.0850 
     18 CA         27.3254  -43.0806  -59.2022 C.3       10 UNK         0.0855 
     19 C          26.6397  -43.6144  -60.4936 C.2       10 UNK         0.5543 
     20 N          26.3775  -44.9097  -60.6231 N.am      10 UNK        -0.7343 
     21 O          26.3398  -42.8337  -61.3935 O.2       10 UNK        -0.5027 
     22 N          27.2958  -44.0208  -58.0711 N.am      10 UNK        -0.4495 
     23 C          26.2144  -44.3229  -57.3450 C.2       10 UNK         0.4903 
     24 O          25.1067  -43.8042  -57.4950 O.2       10 UNK        -0.4860 
     25 CA         26.4126  -45.4154  -56.2775 C.3       9 UNK         0.0227 
     26 CB         25.7570  -45.0190  -54.9423 C.3       9 UNK        -0.1964 
     27 N          25.9055  -46.7250  -56.6984 N.am      9 UNK        -0.4231 
     28 C          26.2620  -47.3818  -57.8111 C.2       9 UNK         0.5014 
     29 O          27.0508  -46.9472  -58.6539 O.2       9 UNK        -0.5270 
     30 CA         25.6847  -48.7867  -57.9921 C.3       8 UNK         0.0284 
     31 CB         25.3116  -49.0362  -59.4718 C.3       8 UNK        -0.1977 
     32 N          26.7016  -49.7255  -57.5194 N.am      8 UNK        -0.4342 
     33 C          26.5922  -51.0587  -57.4733 C.2       8 UNK         0.5039 
     34 O          25.5837  -51.6828  -57.8073 O.2       8 UNK        -0.5547 
     35 CA         27.8168  -51.8336  -56.9600 C.3       7 UNK         0.0281 
     36 CB         29.0365  -51.6293  -57.8755 C.3       7 UNK        -0.1963 
     37 N          28.1611  -51.4829  -55.5816 N.am      7 UNK        -0.4444 
     38 C          27.4116  -51.7788  -54.5097 C.2       7 UNK         0.5104 
     39 O          26.3628  -52.4224  -54.5583 O.2       7 UNK        -0.5100 
     40 CA         27.9142  -51.2768  -53.1451 C.3       6 UNK         0.0396 
     41 CB         28.9368  -52.2573  -52.5492 C.3       6 UNK        -0.1801 
     42 N          28.5044  -49.9402  -53.2073 N.am      6 UNK        -0.4747 
     43 C          27.8353  -48.8139  -53.4980 C.2       6 UNK         0.5012 
     44 O          26.6229  -48.7588  -53.7065 O.2       6 UNK        -0.5003 
     45 CA         28.6856  -47.5344  -53.5906 C.3       5 UNK         0.0782 
     46 C46        28.9525  -46.9646  -52.1700 C.3       11 UNK        -0.0868 
     47 S47        30.2825  -45.7224  -52.0877 S.3       11 UNK        -0.2515 
     48 C48        29.4852  -44.2318  -52.7494 C.3       11 UNK         0.0199 
     49 N          29.9046  -47.7589  -54.3726 N.am      5 UNK        -0.4607 
     50 C          29.9408  -48.0970  -55.6690 C.2       4 UNK         0.5031 
     51 O          28.9434  -48.2768  -56.3647 O.2       4 UNK        -0.5119 
     52 CA         31.3311  -48.3178  -56.2800 C.3       4 UNK         0.0263 
     53 CB         31.9647  -46.9711  -56.6663 C.3       4 UNK        -0.1967 
     54 N          32.2222  -49.0497  -55.3771 N.am      4 UNK        -0.4237 
     55 C          32.0014  -50.3020  -54.9466 C.2       3 UNK         0.4908 
     56 O          31.0529  -50.9962  -55.3120 O.2       3 UNK        -0.5102 
     57 CA         32.9700  -50.8560  -53.8907 C.3       3 UNK         0.0241 
     58 CB         34.2689  -51.3471  -54.5496 C.3       3 UNK        -0.1971 
     59 N          33.2875  -49.8773  -52.8493 N.am      3 UNK        -0.4139 
     60 C          32.4021  -49.3471  -51.9914 C.2       2 UNK         0.5016 
     61 O          31.2094  -49.6503  -51.9545 O.2       2 UNK        -0.5319 
     62 CA         32.9375  -48.2388  -51.0800 C.3       2 UNK         0.0286 
     63 CB         33.9155  -48.7903  -50.0250 C.3       2 UNK        -0.1963 
     64 N          33.5723  -47.2341  -51.9270 N.am      2 UNK        -0.4790 
     65 C          33.9108  -45.9833  -51.6104 C.2       1 UNK         0.5024 
     66 O          33.8351  -45.5254  -50.4689 O.2       1 UNK        -0.4888 
     67 H67        36.5477  -47.1673  -56.1647 H         1 UNK         0.0892 
     68 H68        36.9534  -48.2324  -54.8164 H         1 UNK         0.0892 
     69 H69        37.5431  -46.5680  -54.8359 H         1 UNK         0.0892 
     70 H70        36.3993  -45.2692  -53.4336 H         1 UNK         0.3107 
     71 H71        33.5554  -45.0208  -53.4666 H         1 UNK         0.0773 
     72 H72        35.6619  -43.6873  -51.6960 H         1 UNK         0.0680 
     73 H73        33.9832  -43.2311  -51.7269 H         1 UNK         0.0680 
     74 H74        33.4575  -41.0853  -52.7724 H         1 UNK         0.0650 
     75 H75        33.8092  -40.6556  -54.4249 H         1 UNK         0.0650 
     76 H76        31.7179  -42.7590  -52.2623 H         1 UNK         0.1397 
     77 H77        29.2879  -44.2270  -55.4693 H         1 UNK         0.1363 
     78 H78        32.8001  -41.9252  -56.3306 H         1 UNK         0.1355 
     79 H79        30.2434  -44.1574  -57.7485 H         1 UNK         0.0707 
     80 H80        31.6172  -43.1482  -58.1300 H         1 UNK         0.0707 
     81 H81        29.3773  -43.4177  -59.8987 H         1 UNK         0.1034 
     82 H82        28.7502  -41.8450  -60.3024 H         1 UNK         0.1034 
     83 H83        26.7499  -42.2031  -58.9005 H         1 UNK         0.0482 
     84 H84        25.9330  -45.2422  -61.4634 H         1 UNK         0.3460 
     85 H85        26.6411  -45.5676  -59.8938 H         1 UNK         0.3460 
     86 H86        28.1353  -44.5596  -57.9261 H         1 UNK         0.2989 
     87 H87        27.4826  -45.5344  -56.1020 H         1 UNK         0.0559 
     88 H88        24.6762  -44.9085  -55.0408 H         1 UNK         0.0848 
     89 H89        26.1486  -44.0656  -54.5848 H         1 UNK         0.0848 
     90 H90        25.9432  -45.7584  -54.1637 H         1 UNK         0.0848 
     91 H91        25.2605  -47.1764  -56.0656 H         1 UNK         0.3144 
     92 H92        24.7902  -48.8934  -57.3755 H         1 UNK         0.0727 
     93 H93        24.7664  -49.9704  -59.6021 H         1 UNK         0.0790 
     94 H94        26.1953  -49.0729  -60.1100 H         1 UNK         0.0790 
     95 H95        24.6689  -48.2403  -59.8507 H         1 UNK         0.0790 
     96 H96        27.5602  -49.2873  -57.1830 H         1 UNK         0.3215 
     97 H97        27.5643  -52.8961  -56.9789 H         1 UNK         0.0863 
     98 H98        29.8656  -52.2704  -57.5755 H         1 UNK         0.0808 
     99 H99        29.3927  -50.5991  -57.8595 H         1 UNK         0.0808 
    100 H100       28.7941  -51.8759  -58.9100 H         1 UNK         0.0808 
    101 H101       29.0487  -51.0107  -55.4366 H         1 UNK         0.3118 
    102 H102       27.0564  -51.2297  -52.4711 H         1 UNK         0.0546 
    103 H103       28.5135  -53.2588  -52.4624 H         1 UNK         0.0828 
    104 H104       29.2475  -51.9480  -51.5511 H         1 UNK         0.0828 
    105 H105       29.8318  -52.3328  -53.1678 H         1 UNK         0.0828 
    106 H106       29.4981  -49.8708  -53.0039 H         1 UNK         0.3005 
    107 H107       28.0982  -46.8008  -54.1425 H         1 UNK         0.1257 
    108 H108       29.2447  -47.7618  -51.4832 H         1 UNK         0.0775 
    109 H109       28.0386  -46.5362  -51.7542 H         1 UNK         0.0775 
    110 H110       28.5280  -44.4809  -53.2092 H         1 UNK         0.0840 
    111 H111       29.2647  -43.5454  -51.9307 H         1 UNK         0.0840 
    112 H112       30.7734  -47.6453  -53.8728 H         1 UNK         0.2987 
    113 H113       31.2099  -48.9146  -57.1862 H         1 UNK         0.0785 
    114 H114       31.3357  -46.4360  -57.3786 H         1 UNK         0.0798 
    115 H115       32.9390  -47.1109  -57.1348 H         1 UNK         0.0798 
    116 H116       32.1018  -46.3218  -55.8000 H         1 UNK         0.0798 
    117 H117       33.0421  -48.5446  -55.0437 H         1 UNK         0.3079 
    118 H118       32.4839  -51.7078  -53.4100 H         1 UNK         0.0794 
    119 H119       34.8196  -50.5303  -55.0185 H         1 UNK         0.0786 
    120 H120       34.0575  -52.0857  -55.3243 H         1 UNK         0.0786 
    121 H121       34.9274  -51.8225  -53.8224 H         1 UNK         0.0786 
    122 H122       34.2455  -49.5615  -52.8072 H         1 UNK         0.3032 
    123 H123       32.0864  -47.7801  -50.5717 H         1 UNK         0.1094 
    124 H124       34.2154  -48.0162  -49.3186 H         1 UNK         0.0794 
    125 H125       33.4521  -49.5902  -49.4460 H         1 UNK         0.0794 
    126 H126       34.8209  -49.1947  -50.4784 H         1 UNK         0.0794 
    127 H127       33.6904  -47.4833  -52.9083 H         1 UNK         0.3016 
@<TRIPOS>BOND
     1    1    2 1    
     2    1   67 1    
     3    1   68 1    
     4    1   69 1    
     5    2    3 2    
     6    2    4 am   BACKBONE|DICT|INTERRES
     7    4    5 1    
     8    4   70 1    
     9    5    6 1    
    10    5   65 1    
    11    5   71 1    
    12    6    7 1    
    13    6   72 1    
    14    6   73 1    
    15    7    8 1    
    16    8    9 1    
    17    8   74 1    
    18    8   75 1    
    19    9   10 ar   
    20    9   14 ar   
    21   10   11 ar   
    22   10   76 1    
    23   11   12 ar   
    24   11   48 1    
    25   12   13 ar   
    26   12   77 1    
    27   13   14 ar   
    28   13   15 1    
    29   14   78 1    
    30   15   16 1    
    31   15   79 1    
    32   15   80 1    
    33   16   17 1    
    34   17   18 1    
    35   17   81 1    
    36   17   82 1    
    37   18   19 1    
    38   18   22 1    
    39   18   83 1    
    40   19   20 am   BACKBONE|DICT|INTERRES
    41   19   21 2    
    42   20   84 1    
    43   20   85 1    
    44   22   23 am   BACKBONE|DICT|INTERRES
    45   22   86 1    
    46   23   24 2    
    47   23   25 1    
    48   25   26 1    
    49   25   27 1    
    50   25   87 1    
    51   26   88 1    
    52   26   89 1    
    53   26   90 1    
    54   27   28 am   BACKBONE|DICT|INTERRES
    55   27   91 1    
    56   28   29 2    
    57   28   30 1    
    58   30   31 1    
    59   30   32 1    
    60   30   92 1    
    61   31   93 1    
    62   31   94 1    
    63   31   95 1    
    64   32   33 am   BACKBONE|DICT|INTERRES
    65   32   96 1    
    66   33   34 2    
    67   33   35 1    
    68   35   36 1    
    69   35   37 1    
    70   35   97 1    
    71   36   98 1    
    72   36   99 1    
    73   36  100 1    
    74   37   38 am   BACKBONE|DICT|INTERRES
    75   37  101 1    
    76   38   39 2    
    77   38   40 1    
    78   40   41 1    
    79   40   42 1    
    80   40  102 1    
    81   41  103 1    
    82   41  104 1    
    83   41  105 1    
    84   42   43 am   BACKBONE|DICT|INTERRES
    85   42  106 1    
    86   43   44 2    
    87   43   45 1    
    88   45   46 1    
    89   45   49 1    
    90   45  107 1    
    91   46   47 1    
    92   46  108 1    
    93   46  109 1    
    94   47   48 1    
    95   48  110 1    
    96   48  111 1    
    97   49   50 am   BACKBONE|DICT|INTERRES
    98   49  112 1    
    99   50   51 2    
   100   50   52 1    
   101   52   53 1    
   102   52   54 1    
   103   52  113 1    
   104   53  114 1    
   105   53  115 1    
   106   53  116 1    
   107   54   55 am   BACKBONE|DICT|INTERRES
   108   54  117 1    
   109   55   56 2    
   110   55   57 1    
   111   57   58 1    
   112   57   59 1    
   113   57  118 1    
   114   58  119 1    
   115   58  120 1    
   116   58  121 1    
   117   59   60 am   BACKBONE|DICT|INTERRES
   118   59  122 1    
   119   60   61 2    
   120   60   62 1    
   121   62   63 1    
   122   62   64 1    
   123   62  123 1    
   124   63  124 1    
   125   63  125 1    
   126   63  126 1    
   127   64   65 am   BACKBONE|DICT|INTERRES
   128   64  127 1    
   129   65   66 2    
@<TRIPOS>SUBSTRUCTURE
     1 UNK         1 GROUP             0       ****    0 ROOT    
