@<TRIPOS>MOLECULE
3R134
127   129    1
SMALL
USER_CHARGES


@<TRIPOS>ATOM
      1 CA         39.5957  -45.5386  -53.1338 C.3       0 UNK        -0.1968 
      2 C          38.4180  -46.1358  -53.8898 C.2       0 UNK         0.4852 
      3 O          38.5644  -47.1856  -54.5175 O.2       0 UNK        -0.5359 
      4 N          37.2549  -45.4728  -53.8371 N.am      1 UNK        -0.4300 
      5 CA         36.0029  -45.9092  -54.4681 C.3       1 UNK         0.0863 
      6 C6         34.9740  -44.7533  -54.5761 C.3       11 UNK        -0.0953 
      7 S7         34.6446  -43.9014  -52.9949 S.3       11 UNK        -0.2369 
      8 C8         33.5146  -42.5784  -53.5312 C.3       11 UNK         0.0226 
      9 C9         32.1056  -43.0964  -53.7829 C.ar      11 UNK        -0.0699 
     10 C10        31.3228  -43.5309  -52.7093 C.ar      11 UNK        -0.0804 
     11 C11        30.0202  -43.9979  -52.9084 C.ar      11 UNK        -0.0871 
     12 C12        29.5070  -44.0241  -54.2128 C.ar      11 UNK        -0.1008 
     13 C13        30.2787  -43.5987  -55.2975 C.ar      11 UNK        -0.0735 
     14 C14        31.5774  -43.1296  -55.0770 C.ar      11 UNK        -0.0945 
     15 C15        29.7155  -43.6865  -56.7079 C.3       11 UNK         0.0169 
     16 S16        28.5267  -42.3506  -57.0364 S.3       11 UNK        -0.2669 
     17 C17        28.0496  -42.7209  -58.7603 C.3       11 UNK        -0.0850 
     18 CA         26.6100  -43.2887  -58.8863 C.3       10 UNK         0.0855 
     19 C          26.1791  -43.3795  -60.3819 C.2       10 UNK         0.5543 
     20 N          25.8732  -44.5506  -60.9296 N.am      10 UNK        -0.7343 
     21 O          26.1172  -42.3573  -61.0605 O.2       10 UNK        -0.5027 
     22 N          26.4503  -44.5409  -58.1306 N.am      10 UNK        -0.4495 
     23 C          25.2794  -45.0662  -57.7477 C.2       10 UNK         0.4903 
     24 O          24.1953  -44.4991  -57.8917 O.2       10 UNK        -0.4860 
     25 CA         25.3393  -46.4677  -57.1051 C.3       9 UNK         0.0227 
     26 CB         23.9984  -47.2259  -57.1917 C.3       9 UNK        -0.1964 
     27 N          26.4381  -47.2994  -57.6175 N.am      9 UNK        -0.4231 
     28 C          26.6487  -47.6758  -58.8886 C.2       9 UNK         0.5014 
     29 O          25.9201  -47.3563  -59.8288 O.2       9 UNK        -0.5270 
     30 CA         27.9012  -48.5160  -59.1722 C.3       8 UNK         0.0284 
     31 CB         29.1143  -47.5973  -59.4036 C.3       8 UNK        -0.1977 
     32 N          28.2004  -49.4507  -58.0817 N.am      8 UNK        -0.4342 
     33 C          28.2228  -50.7839  -58.2066 C.2       8 UNK         0.5039 
     34 O          27.9620  -51.3799  -59.2530 O.2       8 UNK        -0.5547 
     35 CA         28.6257  -51.6065  -56.9705 C.3       7 UNK         0.0281 
     36 CB         30.1545  -51.7411  -56.8826 C.3       7 UNK        -0.1963 
     37 N          28.1064  -51.0898  -55.7020 N.am      7 UNK        -0.4444 
     38 C          26.8230  -51.1796  -55.3230 C.2       7 UNK         0.5104 
     39 O          25.9211  -51.6046  -56.0452 O.2       7 UNK        -0.5100 
     40 CA         26.4927  -50.7455  -53.8869 C.3       6 UNK         0.0396 
     41 CB         26.9365  -51.8194  -52.8794 C.3       6 UNK        -0.1801 
     42 N          27.1370  -49.4738  -53.5629 N.am      6 UNK        -0.4747 
     43 C          26.5414  -48.2777  -53.6749 C.2       6 UNK         0.5012 
     44 O          25.3539  -48.1340  -53.9651 O.2       6 UNK        -0.5003 
     45 CA         27.4077  -47.0183  -53.4472 C.3       5 UNK         0.0782 
     46 C46        27.2026  -46.4535  -52.0186 C.3       11 UNK        -0.0868 
     47 S47        27.4261  -44.6452  -51.9363 S.3       11 UNK        -0.2515 
     48 C48        29.2268  -44.4657  -51.6847 C.3       11 UNK         0.0199 
     49 N          28.8279  -47.2490  -53.7418 N.am      5 UNK        -0.4607 
     50 C          29.3174  -47.5532  -54.9508 C.2       4 UNK         0.5031 
     51 O          28.6266  -47.6044  -55.9664 O.2       4 UNK        -0.5119 
     52 CA         30.8020  -47.9375  -55.0447 C.3       4 UNK         0.0263 
     53 CB         31.6555  -46.7413  -55.4778 C.3       4 UNK        -0.1967 
     54 N          31.3468  -48.5119  -53.8123 N.am      4 UNK        -0.4237 
     55 C          30.9325  -49.6490  -53.2390 C.2       3 UNK         0.4908 
     56 O          30.0080  -50.3247  -53.6969 O.2       3 UNK        -0.5102 
     57 CA         31.6353  -50.0926  -51.9367 C.3       3 UNK         0.0241 
     58 CB         31.4584  -51.5997  -51.6716 C.3       3 UNK        -0.1971 
     59 N          33.0667  -49.7669  -51.8859 N.am      3 UNK        -0.4139 
     60 C          33.5920  -48.5534  -51.6675 C.2       2 UNK         0.5016 
     61 O          32.9043  -47.5429  -51.5099 O.2       2 UNK        -0.5319 
     62 CA         35.1298  -48.4260  -51.6396 C.3       2 UNK         0.0286 
     63 CB         35.8860  -49.7302  -51.9848 C.3       2 UNK        -0.1963 
     64 N          35.6027  -47.3217  -52.4849 N.am      2 UNK        -0.4790 
     65 C          35.3980  -47.1669  -53.8038 C.2       1 UNK         0.5024 
     66 O          34.7835  -47.9749  -54.5011 O.2       1 UNK        -0.4888 
     67 H67        39.3305  -44.6067  -52.6347 H         1 UNK         0.0892 
     68 H68        39.9501  -46.2390  -52.3780 H         1 UNK         0.0892 
     69 H69        40.4168  -45.3332  -53.8201 H         1 UNK         0.0892 
     70 H70        37.1918  -44.6126  -53.3103 H         1 UNK         0.3107 
     71 H71        36.2514  -46.2048  -55.4900 H         1 UNK         0.0773 
     72 H72        34.0312  -45.1084  -54.9937 H         1 UNK         0.0680 
     73 H73        35.3462  -44.0103  -55.2830 H         1 UNK         0.0680 
     74 H74        33.9194  -42.0889  -54.4183 H         1 UNK         0.0650 
     75 H75        33.4765  -41.8154  -52.7525 H         1 UNK         0.0650 
     76 H76        31.7374  -43.5075  -51.7103 H         1 UNK         0.1397 
     77 H77        28.5072  -44.3828  -54.4050 H         1 UNK         0.1363 
     78 H78        32.1793  -42.7996  -55.9126 H         1 UNK         0.1355 
     79 H79        30.5213  -43.6433  -57.4425 H         1 UNK         0.0707 
     80 H80        29.2248  -44.6518  -56.8419 H         1 UNK         0.0707 
     81 H81        28.1371  -41.7873  -59.3198 H         1 UNK         0.1034 
     82 H82        28.7716  -43.4036  -59.2121 H         1 UNK         0.1034 
     83 H83        25.9368  -42.5570  -58.4354 H         1 UNK         0.0482 
     84 H84        25.5947  -44.5784  -61.8974 H         1 UNK         0.3460 
     85 H85        25.8977  -45.4103  -60.3926 H         1 UNK         0.3460 
     86 H86        27.2883  -45.0784  -57.9761 H         1 UNK         0.2989 
     87 H87        25.5516  -46.2990  -56.0499 H         1 UNK         0.0559 
     88 H88        23.6888  -47.3855  -58.2250 H         1 UNK         0.0848 
     89 H89        23.2015  -46.6722  -56.6940 H         1 UNK         0.0848 
     90 H90        24.0645  -48.1993  -56.7053 H         1 UNK         0.0848 
     91 H91        27.1608  -47.5288  -56.9367 H         1 UNK         0.3144 
     92 H92        27.7132  -49.0593  -60.1006 H         1 UNK         0.0727 
     93 H93        29.3658  -47.0182  -58.5145 H         1 UNK         0.0790 
     94 H94        28.9204  -46.8895  -60.2110 H         1 UNK         0.0790 
     95 H95        29.9956  -48.1740  -59.6847 H         1 UNK         0.0790 
     96 H96        28.4152  -49.0354  -57.1800 H         1 UNK         0.3215 
     97 H97        28.2163  -52.6103  -57.1065 H         1 UNK         0.0863 
     98 H98        30.4502  -52.3769  -56.0477 H         1 UNK         0.0808 
     99 H99        30.6416  -50.7754  -56.7556 H         1 UNK         0.0808 
    100 H100       30.5581  -52.1907  -57.7909 H         1 UNK         0.0808 
    101 H101       28.7923  -50.7695  -55.0214 H         1 UNK         0.3118 
    102 H102       25.4079  -50.6486  -53.8064 H         1 UNK         0.0546 
    103 H103       26.4567  -52.7753  -53.0938 H         1 UNK         0.0828 
    104 H104       26.6636  -51.5421  -51.8613 H         1 UNK         0.0828 
    105 H105       28.0141  -51.9847  -52.9026 H         1 UNK         0.0828 
    106 H106       28.1290  -49.5123  -53.3591 H         1 UNK         0.3005 
    107 H107       27.0405  -46.2826  -54.1652 H         1 UNK         0.1257 
    108 H108       27.8479  -46.9525  -51.2936 H         1 UNK         0.0775 
    109 H109       26.1831  -46.6343  -51.6704 H         1 UNK         0.0775 
    110 H110       29.3684  -43.7413  -50.8811 H         1 UNK         0.0840 
    111 H111       29.6515  -45.4026  -51.3227 H         1 UNK         0.0840 
    112 H112       29.4656  -47.2185  -52.9609 H         1 UNK         0.2987 
    113 H113       30.8807  -48.6961  -55.8237 H         1 UNK         0.0785 
    114 H114       31.7502  -46.0085  -54.6767 H         1 UNK         0.0798 
    115 H115       31.2236  -46.2389  -56.3438 H         1 UNK         0.0798 
    116 H116       32.6572  -47.0584  -55.7641 H         1 UNK         0.0798 
    117 H117       32.0798  -47.9911  -53.3427 H         1 UNK         0.3079 
    118 H118       31.1403  -49.5563  -51.1246 H         1 UNK         0.0794 
    119 H119       31.8942  -52.2022  -52.4696 H         1 UNK         0.0786 
    120 H120       30.4030  -51.8668  -51.6010 H         1 UNK         0.0786 
    121 H121       31.9248  -51.8963  -50.7319 H         1 UNK         0.0786 
    122 H122       33.7038  -50.5323  -52.0533 H         1 UNK         0.3032 
    123 H123       35.3847  -48.1594  -50.6125 H         1 UNK         0.1094 
    124 H124       36.9644  -49.5783  -51.9349 H         1 UNK         0.0794 
    125 H125       35.6488  -50.5276  -51.2792 H         1 UNK         0.0794 
    126 H126       35.6544  -50.0890  -52.9885 H         1 UNK         0.0794 
    127 H127       36.0844  -46.5762  -52.0023 H         1 UNK         0.3016 
@<TRIPOS>BOND
     1    1    2 1    
     2    1   67 1    
     3    1   68 1    
     4    1   69 1    
     5    2    3 2    
     6    2    4 am   BACKBONE|DICT|INTERRES
     7    4    5 1    
     8    4   70 1    
     9    5    6 1    
    10    5   65 1    
    11    5   71 1    
    12    6    7 1    
    13    6   72 1    
    14    6   73 1    
    15    7    8 1    
    16    8    9 1    
    17    8   74 1    
    18    8   75 1    
    19    9   10 ar   
    20    9   14 ar   
    21   10   11 ar   
    22   10   76 1    
    23   11   12 ar   
    24   11   48 1    
    25   12   13 ar   
    26   12   77 1    
    27   13   14 ar   
    28   13   15 1    
    29   14   78 1    
    30   15   16 1    
    31   15   79 1    
    32   15   80 1    
    33   16   17 1    
    34   17   18 1    
    35   17   81 1    
    36   17   82 1    
    37   18   19 1    
    38   18   22 1    
    39   18   83 1    
    40   19   20 am   BACKBONE|DICT|INTERRES
    41   19   21 2    
    42   20   84 1    
    43   20   85 1    
    44   22   23 am   BACKBONE|DICT|INTERRES
    45   22   86 1    
    46   23   24 2    
    47   23   25 1    
    48   25   26 1    
    49   25   27 1    
    50   25   87 1    
    51   26   88 1    
    52   26   89 1    
    53   26   90 1    
    54   27   28 am   BACKBONE|DICT|INTERRES
    55   27   91 1    
    56   28   29 2    
    57   28   30 1    
    58   30   31 1    
    59   30   32 1    
    60   30   92 1    
    61   31   93 1    
    62   31   94 1    
    63   31   95 1    
    64   32   33 am   BACKBONE|DICT|INTERRES
    65   32   96 1    
    66   33   34 2    
    67   33   35 1    
    68   35   36 1    
    69   35   37 1    
    70   35   97 1    
    71   36   98 1    
    72   36   99 1    
    73   36  100 1    
    74   37   38 am   BACKBONE|DICT|INTERRES
    75   37  101 1    
    76   38   39 2    
    77   38   40 1    
    78   40   41 1    
    79   40   42 1    
    80   40  102 1    
    81   41  103 1    
    82   41  104 1    
    83   41  105 1    
    84   42   43 am   BACKBONE|DICT|INTERRES
    85   42  106 1    
    86   43   44 2    
    87   43   45 1    
    88   45   46 1    
    89   45   49 1    
    90   45  107 1    
    91   46   47 1    
    92   46  108 1    
    93   46  109 1    
    94   47   48 1    
    95   48  110 1    
    96   48  111 1    
    97   49   50 am   BACKBONE|DICT|INTERRES
    98   49  112 1    
    99   50   51 2    
   100   50   52 1    
   101   52   53 1    
   102   52   54 1    
   103   52  113 1    
   104   53  114 1    
   105   53  115 1    
   106   53  116 1    
   107   54   55 am   BACKBONE|DICT|INTERRES
   108   54  117 1    
   109   55   56 2    
   110   55   57 1    
   111   57   58 1    
   112   57   59 1    
   113   57  118 1    
   114   58  119 1    
   115   58  120 1    
   116   58  121 1    
   117   59   60 am   BACKBONE|DICT|INTERRES
   118   59  122 1    
   119   60   61 2    
   120   60   62 1    
   121   62   63 1    
   122   62   64 1    
   123   62  123 1    
   124   63  124 1    
   125   63  125 1    
   126   63  126 1    
   127   64   65 am   BACKBONE|DICT|INTERRES
   128   64  127 1    
   129   65   66 2    
@<TRIPOS>SUBSTRUCTURE
     1 UNK         1 GROUP             0       ****    0 ROOT    
