@<TRIPOS>MOLECULE
3R134
127   129    1
SMALL
USER_CHARGES


@<TRIPOS>ATOM
      1 CA         29.8304  -44.7806  -49.6442 C.3       0 UNK        -0.1968 
      2 C          31.2603  -45.2798  -49.4938 C.2       0 UNK         0.4852 
      3 O          31.6593  -45.6770  -48.3977 O.2       0 UNK        -0.5359 
      4 N          32.0331  -45.2535  -50.5860 N.am      1 UNK        -0.4300 
      5 CA         33.3961  -45.7843  -50.6735 C.3       1 UNK         0.0863 
      6 C6         34.1573  -45.2138  -51.9005 C.3       11 UNK        -0.0953 
      7 S7         33.2473  -45.3380  -53.4826 S.3       11 UNK        -0.2369 
      8 C8         33.0058  -43.5733  -53.8644 C.3       11 UNK         0.0226 
      9 C9         32.1756  -43.3535  -55.1222 C.ar      11 UNK        -0.0699 
     10 C10        32.5798  -43.9070  -56.3403 C.ar      11 UNK        -0.0804 
     11 C11        31.8384  -43.6865  -57.5045 C.ar      11 UNK        -0.0871 
     12 C12        30.7002  -42.8758  -57.4516 C.ar      11 UNK        -0.1008 
     13 C13        30.2924  -42.3017  -56.2428 C.ar      11 UNK        -0.0735 
     14 C14        31.0280  -42.5550  -55.0799 C.ar      11 UNK        -0.0945 
     15 C15        29.0806  -41.3769  -56.1941 C.3       11 UNK         0.0169 
     16 S16        27.5312  -42.1943  -56.6930 S.3       11 UNK        -0.2669 
     17 C17        27.4040  -43.5138  -55.4391 C.3       11 UNK        -0.0850 
     18 CA         26.2587  -44.5436  -55.6638 C.3       10 UNK         0.0855 
     19 C          24.8361  -44.0529  -55.2534 C.2       10 UNK         0.5543 
     20 N          23.7695  -44.6993  -55.7069 N.am      10 UNK        -0.7343 
     21 O          24.6913  -43.1093  -54.4797 O.2       10 UNK        -0.5027 
     22 N          26.3957  -45.2790  -56.9360 N.am      10 UNK        -0.4495 
     23 C          25.9126  -44.9475  -58.1434 C.2       10 UNK         0.4903 
     24 O          25.1568  -44.0011  -58.3625 O.2       10 UNK        -0.4860 
     25 CA         26.3573  -45.8128  -59.3304 C.3       9 UNK         0.0227 
     26 CB         27.6204  -45.2074  -59.9644 C.3       9 UNK        -0.1964 
     27 N          26.6333  -47.1993  -58.9401 N.am      9 UNK        -0.4231 
     28 C          25.9380  -48.2619  -59.3661 C.2       9 UNK         0.5014 
     29 O          24.9537  -48.1907  -60.1039 O.2       9 UNK        -0.5270 
     30 CA         26.4327  -49.6494  -58.9248 C.3       8 UNK         0.0284 
     31 CB         27.6149  -50.1039  -59.7968 C.3       8 UNK        -0.1977 
     32 N          26.8087  -49.7348  -57.5126 N.am      8 UNK        -0.4342 
     33 C          25.9441  -49.6926  -56.4887 C.2       8 UNK         0.5039 
     34 O          24.7376  -49.4826  -56.6161 O.2       8 UNK        -0.5547 
     35 CA         26.5178  -49.9469  -55.0869 C.3       7 UNK         0.0281 
     36 CB         26.8206  -51.4412  -54.8817 C.3       7 UNK        -0.1963 
     37 N          27.7352  -49.1656  -54.8766 N.am      7 UNK        -0.4444 
     38 C          27.7759  -47.9886  -54.2390 C.2       7 UNK         0.5104 
     39 O          26.8137  -47.4996  -53.6476 O.2       7 UNK        -0.5100 
     40 CA         29.1049  -47.2086  -54.2637 C.3       6 UNK         0.0396 
     41 CB         29.8178  -47.3328  -52.9104 C.3       6 UNK        -0.1801 
     42 N          30.0176  -47.6129  -55.3387 N.am      6 UNK        -0.4747 
     43 C          29.7801  -47.4252  -56.6475 C.2       6 UNK         0.5012 
     44 O          28.7538  -46.8986  -57.0773 O.2       6 UNK        -0.5003 
     45 CA         30.7979  -48.0168  -57.6495 C.3       5 UNK         0.0782 
     46 C46        31.9000  -47.0012  -58.0365 C.3       11 UNK        -0.0868 
     47 S47        31.3179  -45.7797  -59.2600 S.3       11 UNK        -0.2515 
     48 C48        32.2850  -44.2999  -58.8238 C.3       11 UNK         0.0199 
     49 N          31.3809  -49.2789  -57.1851 N.am      5 UNK        -0.4607 
     50 C          30.6922  -50.3823  -56.8625 C.2       4 UNK         0.5031 
     51 O          29.4691  -50.4743  -56.9677 O.2       4 UNK        -0.5119 
     52 CA         31.4886  -51.5620  -56.2778 C.3       4 UNK         0.0263 
     53 CB         31.7724  -52.6046  -57.3703 C.3       4 UNK        -0.1967 
     54 N          32.7493  -51.1755  -55.6287 N.am      4 UNK        -0.4237 
     55 C          32.8476  -50.3634  -54.5665 C.2       3 UNK         0.4908 
     56 O          31.8829  -49.8144  -54.0290 O.2       3 UNK        -0.5102 
     57 CA         34.2621  -50.0746  -54.0580 C.3       3 UNK         0.0241 
     58 CB         34.9142  -48.9428  -54.8738 C.3       3 UNK        -0.1971 
     59 N          34.1810  -49.6837  -52.6552 N.am      3 UNK        -0.4139 
     60 C          35.1352  -49.8544  -51.7355 C.2       2 UNK         0.5016 
     61 O          36.2351  -50.3550  -51.9797 O.2       2 UNK        -0.5319 
     62 CA         34.8105  -49.3537  -50.3131 C.3       2 UNK         0.0286 
     63 CB         35.9271  -49.6729  -49.3007 C.3       2 UNK        -0.1963 
     64 N          34.5610  -47.9092  -50.3015 N.am      2 UNK        -0.4790 
     65 C          33.4093  -47.3279  -50.6616 C.2       1 UNK         0.5024 
     66 O          32.4129  -47.9673  -51.0076 O.2       1 UNK        -0.4888 
     67 H67        29.6499  -43.9474  -48.9656 H         1 UNK         0.0892 
     68 H68        29.1285  -45.5777  -49.4005 H         1 UNK         0.0892 
     69 H69        29.6201  -44.4431  -50.6590 H         1 UNK         0.0892 
     70 H70        31.6440  -44.9495  -51.4663 H         1 UNK         0.3107 
     71 H71        33.9290  -45.4591  -49.7771 H         1 UNK         0.0773 
     72 H72        34.3946  -44.1662  -51.7097 H         1 UNK         0.0680 
     73 H73        35.1254  -45.7027  -52.0248 H         1 UNK         0.0680 
     74 H74        33.9796  -43.1001  -53.9977 H         1 UNK         0.0650 
     75 H75        32.5374  -43.0880  -53.0067 H         1 UNK         0.0650 
     76 H76        33.4743  -44.5136  -56.3772 H         1 UNK         0.1397 
     77 H77        30.1304  -42.6896  -58.3519 H         1 UNK         0.1363 
     78 H78        30.7199  -42.1092  -54.1441 H         1 UNK         0.1355 
     79 H79        29.2581  -40.5301  -56.8583 H         1 UNK         0.0707 
     80 H80        28.9494  -40.9584  -55.1950 H         1 UNK         0.0707 
     81 H81        27.3275  -43.0565  -54.4511 H         1 UNK         0.1034 
     82 H82        28.3514  -44.0537  -55.4341 H         1 UNK         0.1034 
     83 H83        26.4413  -45.3133  -54.9177 H         1 UNK         0.0482 
     84 H84        22.8496  -44.3929  -55.4329 H         1 UNK         0.3460 
     85 H85        23.8787  -45.4692  -56.3474 H         1 UNK         0.3460 
     86 H86        27.0667  -46.0386  -56.9057 H         1 UNK         0.2989 
     87 H87        25.5602  -45.7767  -60.0758 H         1 UNK         0.0559 
     88 H88        27.9673  -45.7991  -60.8116 H         1 UNK         0.0848 
     89 H89        28.4360  -45.1395  -59.2439 H         1 UNK         0.0848 
     90 H90        27.4279  -44.1974  -60.3285 H         1 UNK         0.0848 
     91 H91        27.4231  -47.3394  -58.3156 H         1 UNK         0.3144 
     92 H92        25.6130  -50.3529  -59.0867 H         1 UNK         0.0727 
     93 H93        27.9224  -51.1204  -59.5498 H         1 UNK         0.0790 
     94 H94        28.4817  -49.4546  -59.6756 H         1 UNK         0.0790 
     95 H95        27.3461  -50.0947  -60.8540 H         1 UNK         0.0790 
     96 H96        27.7827  -49.9621  -57.3170 H         1 UNK         0.3215 
     97 H97        25.7557  -49.6611  -54.3582 H         1 UNK         0.0863 
     98 H98        27.1815  -51.6348  -53.8715 H         1 UNK         0.0808 
     99 H99        27.5726  -51.8092  -55.5804 H         1 UNK         0.0808 
    100 H100       25.9219  -52.0426  -55.0249 H         1 UNK         0.0808 
    101 H101       28.5703  -49.4876  -55.3505 H         1 UNK         0.3118 
    102 H102       28.8622  -46.1562  -54.4173 H         1 UNK         0.0546 
    103 H103       30.0706  -48.3681  -52.6791 H         1 UNK         0.0828 
    104 H104       29.1892  -46.9638  -52.0992 H         1 UNK         0.0828 
    105 H105       30.7396  -46.7546  -52.8935 H         1 UNK         0.0828 
    106 H106       30.8446  -48.1264  -55.0556 H         1 UNK         0.3005 
    107 H107       30.2362  -48.2648  -58.5522 H         1 UNK         0.1257 
    108 H108       32.3029  -46.5103  -57.1505 H         1 UNK         0.0775 
    109 H109       32.7436  -47.5172  -58.4980 H         1 UNK         0.0775 
    110 H110       33.3454  -44.5557  -58.7950 H         1 UNK         0.0840 
    111 H111       32.1743  -43.5623  -59.6201 H         1 UNK         0.0840 
    112 H112       32.3823  -49.2950  -57.0652 H         1 UNK         0.2987 
    113 H113       30.8568  -52.0262  -55.5175 H         1 UNK         0.0785 
    114 H114       32.4245  -52.2075  -58.1493 H         1 UNK         0.0798 
    115 H115       30.8477  -52.9261  -57.8523 H         1 UNK         0.0798 
    116 H116       32.2449  -53.4957  -56.9566 H         1 UNK         0.0798 
    117 H117       33.5940  -51.5727  -56.0155 H         1 UNK         0.3079 
    118 H118       34.8567  -50.9864  -54.1474 H         1 UNK         0.0794 
    119 H119       34.3365  -48.0193  -54.8122 H         1 UNK         0.0786 
    120 H120       34.9956  -49.2103  -55.9279 H         1 UNK         0.0786 
    121 H121       35.9219  -48.7279  -54.5178 H         1 UNK         0.0786 
    122 H122       33.2927  -49.2738  -52.3760 H         1 UNK         0.3032 
    123 H123       33.9084  -49.8767  -49.9861 H         1 UNK         0.1094 
    124 H124       35.6511  -49.3589  -48.2939 H         1 UNK         0.0794 
    125 H125       36.1227  -50.7454  -49.2606 H         1 UNK         0.0794 
    126 H126       36.8645  -49.1798  -49.5614 H         1 UNK         0.0794 
    127 H127       35.3487  -47.3228  -50.0637 H         1 UNK         0.3016 
@<TRIPOS>BOND
     1    1    2 1    
     2    1   67 1    
     3    1   68 1    
     4    1   69 1    
     5    2    3 2    
     6    2    4 am   BACKBONE|DICT|INTERRES
     7    4    5 1    
     8    4   70 1    
     9    5    6 1    
    10    5   65 1    
    11    5   71 1    
    12    6    7 1    
    13    6   72 1    
    14    6   73 1    
    15    7    8 1    
    16    8    9 1    
    17    8   74 1    
    18    8   75 1    
    19    9   10 ar   
    20    9   14 ar   
    21   10   11 ar   
    22   10   76 1    
    23   11   12 ar   
    24   11   48 1    
    25   12   13 ar   
    26   12   77 1    
    27   13   14 ar   
    28   13   15 1    
    29   14   78 1    
    30   15   16 1    
    31   15   79 1    
    32   15   80 1    
    33   16   17 1    
    34   17   18 1    
    35   17   81 1    
    36   17   82 1    
    37   18   19 1    
    38   18   22 1    
    39   18   83 1    
    40   19   20 am   BACKBONE|DICT|INTERRES
    41   19   21 2    
    42   20   84 1    
    43   20   85 1    
    44   22   23 am   BACKBONE|DICT|INTERRES
    45   22   86 1    
    46   23   24 2    
    47   23   25 1    
    48   25   26 1    
    49   25   27 1    
    50   25   87 1    
    51   26   88 1    
    52   26   89 1    
    53   26   90 1    
    54   27   28 am   BACKBONE|DICT|INTERRES
    55   27   91 1    
    56   28   29 2    
    57   28   30 1    
    58   30   31 1    
    59   30   32 1    
    60   30   92 1    
    61   31   93 1    
    62   31   94 1    
    63   31   95 1    
    64   32   33 am   BACKBONE|DICT|INTERRES
    65   32   96 1    
    66   33   34 2    
    67   33   35 1    
    68   35   36 1    
    69   35   37 1    
    70   35   97 1    
    71   36   98 1    
    72   36   99 1    
    73   36  100 1    
    74   37   38 am   BACKBONE|DICT|INTERRES
    75   37  101 1    
    76   38   39 2    
    77   38   40 1    
    78   40   41 1    
    79   40   42 1    
    80   40  102 1    
    81   41  103 1    
    82   41  104 1    
    83   41  105 1    
    84   42   43 am   BACKBONE|DICT|INTERRES
    85   42  106 1    
    86   43   44 2    
    87   43   45 1    
    88   45   46 1    
    89   45   49 1    
    90   45  107 1    
    91   46   47 1    
    92   46  108 1    
    93   46  109 1    
    94   47   48 1    
    95   48  110 1    
    96   48  111 1    
    97   49   50 am   BACKBONE|DICT|INTERRES
    98   49  112 1    
    99   50   51 2    
   100   50   52 1    
   101   52   53 1    
   102   52   54 1    
   103   52  113 1    
   104   53  114 1    
   105   53  115 1    
   106   53  116 1    
   107   54   55 am   BACKBONE|DICT|INTERRES
   108   54  117 1    
   109   55   56 2    
   110   55   57 1    
   111   57   58 1    
   112   57   59 1    
   113   57  118 1    
   114   58  119 1    
   115   58  120 1    
   116   58  121 1    
   117   59   60 am   BACKBONE|DICT|INTERRES
   118   59  122 1    
   119   60   61 2    
   120   60   62 1    
   121   62   63 1    
   122   62   64 1    
   123   62  123 1    
   124   63  124 1    
   125   63  125 1    
   126   63  126 1    
   127   64   65 am   BACKBONE|DICT|INTERRES
   128   64  127 1    
   129   65   66 2    
@<TRIPOS>SUBSTRUCTURE
     1 UNK         1 GROUP             0       ****    0 ROOT    
