@<TRIPOS>MOLECULE
3R134
127   129    1
SMALL
USER_CHARGES


@<TRIPOS>ATOM
      1 CA         31.6244  -49.2537  -50.1054 C.3       0 UNK        -0.1968 
      2 C          32.7060  -48.2659  -49.6930 C.2       0 UNK         0.4852 
      3 O          33.7016  -48.6634  -49.0871 O.2       0 UNK        -0.5359 
      4 N          32.5226  -46.9822  -50.0289 N.am      1 UNK        -0.4300 
      5 CA         33.4660  -45.8808  -49.7824 C.3       1 UNK         0.0863 
      6 C6         32.7881  -44.4884  -49.9124 C.3       11 UNK        -0.0953 
      7 S7         31.6657  -44.3378  -51.3433 S.3       11 UNK        -0.2369 
      8 C8         32.6841  -43.4460  -52.5551 C.3       11 UNK         0.0226 
      9 C9         32.1248  -43.6286  -53.9589 C.ar      11 UNK        -0.0699 
     10 C10        32.8294  -44.3724  -54.9069 C.ar      11 UNK        -0.0804 
     11 C11        32.3127  -44.5653  -56.1905 C.ar      11 UNK        -0.0871 
     12 C12        31.0717  -44.0134  -56.5219 C.ar      11 UNK        -0.1008 
     13 C13        30.3515  -43.2574  -55.5837 C.ar      11 UNK        -0.0735 
     14 C14        30.8944  -43.0666  -54.3089 C.ar      11 UNK        -0.0945 
     15 C15        28.9707  -42.6610  -55.8628 C.3       11 UNK         0.0169 
     16 S16        28.3691  -42.8108  -57.5791 S.3       11 UNK        -0.2669 
     17 C17        26.5659  -42.6960  -57.3108 C.3       11 UNK        -0.0850 
     18 CA         25.9260  -44.0698  -56.9406 C.3       10 UNK         0.0855 
     19 C          24.4010  -43.9882  -56.6211 C.2       10 UNK         0.5543 
     20 N          23.9485  -42.9397  -55.9448 N.am      10 UNK        -0.7343 
     21 O          23.6200  -44.8842  -56.9354 O.2       10 UNK        -0.5027 
     22 N          26.2828  -45.1297  -57.8967 N.am      10 UNK        -0.4495 
     23 C          25.9118  -45.2046  -59.1815 C.2       10 UNK         0.4903 
     24 O          25.1789  -44.3887  -59.7424 O.2       10 UNK        -0.4860 
     25 CA         26.4646  -46.3860  -59.9903 C.3       9 UNK         0.0227 
     26 CB         27.8637  -46.0516  -60.5367 C.3       9 UNK        -0.1964 
     27 N          26.5354  -47.6047  -59.1787 N.am      9 UNK        -0.4231 
     28 C          25.7882  -48.6979  -59.3804 C.2       9 UNK         0.5014 
     29 O          24.9603  -48.8087  -60.2862 O.2       9 UNK        -0.5270 
     30 CA         26.0055  -49.8876  -58.4307 C.3       8 UNK         0.0284 
     31 CB         27.1328  -50.7951  -58.9508 C.3       8 UNK        -0.1977 
     32 N          26.2872  -49.5066  -57.0448 N.am      8 UNK        -0.4342 
     33 C          25.3770  -49.0082  -56.1955 C.2       8 UNK         0.5039 
     34 O          24.2190  -48.7400  -56.5161 O.2       8 UNK        -0.5547 
     35 CA         25.8138  -48.8036  -54.7370 C.3       7 UNK         0.0281 
     36 CB         25.7688  -50.1379  -53.9736 C.3       7 UNK        -0.1963 
     37 N          27.1645  -48.2501  -54.6547 N.am      7 UNK        -0.4444 
     38 C          27.4563  -46.9902  -54.3051 C.2       7 UNK         0.5104 
     39 O          26.6181  -46.1627  -53.9472 O.2       7 UNK        -0.5100 
     40 CA         28.9376  -46.5703  -54.3718 C.3       6 UNK         0.0396 
     41 CB         29.6056  -46.7663  -53.0045 C.3       6 UNK        -0.1801 
     42 N          29.7265  -47.2875  -55.3741 N.am      6 UNK        -0.4747 
     43 C          29.4619  -47.3496  -56.6870 C.2       6 UNK         0.5012 
     44 O          28.5085  -46.7871  -57.2255 O.2       6 UNK        -0.5003 
     45 CA         30.3502  -48.2863  -57.5300 C.3       5 UNK         0.0782 
     46 C46        31.5308  -47.5176  -58.1765 C.3       11 UNK        -0.0868 
     47 S47        32.9096  -47.1461  -57.0305 S.3       11 UNK        -0.2515 
     48 C48        33.1172  -45.3470  -57.2189 C.3       11 UNK         0.0199 
     49 N          30.7963  -49.4819  -56.8002 N.am      5 UNK        -0.4607 
     50 C          30.0233  -50.3315  -56.1070 C.2       4 UNK         0.5031 
     51 O          28.7936  -50.2651  -56.0845 O.2       4 UNK        -0.5119 
     52 CA         30.7226  -51.4035  -55.2505 C.3       4 UNK         0.0263 
     53 CB         30.5457  -52.7894  -55.8911 C.3       4 UNK        -0.1967 
     54 N          32.1500  -51.1672  -54.9959 N.am      4 UNK        -0.4237 
     55 C          32.6746  -50.1060  -54.3657 C.2       3 UNK         0.4908 
     56 O          32.0054  -49.1661  -53.9232 O.2       3 UNK        -0.5102 
     57 CA         34.2050  -50.0834  -54.2398 C.3       3 UNK         0.0241 
     58 CB         34.9070  -50.2704  -55.6031 C.3       3 UNK        -0.1971 
     59 N          34.6016  -48.8130  -53.6421 N.am      3 UNK        -0.4139 
     60 C          35.7711  -48.5554  -53.0446 C.2       2 UNK         0.5016 
     61 O          36.6812  -49.3764  -52.9253 O.2       2 UNK        -0.5319 
     62 CA         35.9431  -47.1496  -52.4608 C.3       2 UNK         0.0286 
     63 CB         36.2401  -46.1204  -53.5664 C.3       2 UNK        -0.1963 
     64 N          34.7540  -46.7755  -51.6927 N.am      2 UNK        -0.4790 
     65 C          34.7626  -45.9739  -50.6200 C.2       1 UNK         0.5024 
     66 O          35.7530  -45.3354  -50.2603 O.2       1 UNK        -0.4888 
     67 H67        32.0218  -49.9620  -50.8323 H         1 UNK         0.0892 
     68 H68        31.2743  -49.8129  -49.2382 H         1 UNK         0.0892 
     69 H69        30.7663  -48.7548  -50.5552 H         1 UNK         0.0892 
     70 H70        31.6814  -46.7073  -50.5173 H         1 UNK         0.3107 
     71 H71        33.7922  -45.9762  -48.7443 H         1 UNK         0.0773 
     72 H72        32.1817  -44.3119  -49.0229 H         1 UNK         0.0680 
     73 H73        33.5202  -43.6782  -49.9231 H         1 UNK         0.0680 
     74 H74        33.7127  -43.8062  -52.5037 H         1 UNK         0.0650 
     75 H75        32.7092  -42.3859  -52.2996 H         1 UNK         0.0650 
     76 H76        33.7839  -44.8017  -54.6461 H         1 UNK         0.1397 
     77 H77        30.6755  -44.1861  -57.5118 H         1 UNK         0.1363 
     78 H78        30.3445  -42.4980  -53.5710 H         1 UNK         0.1355 
     79 H79        28.9736  -41.6037  -55.5938 H         1 UNK         0.0707 
     80 H80        28.2601  -43.1487  -55.1945 H         1 UNK         0.0707 
     81 H81        26.3852  -41.9510  -56.5350 H         1 UNK         0.1034 
     82 H82        26.1091  -42.2988  -58.2188 H         1 UNK         0.1034 
     83 H83        26.3766  -44.3946  -56.0035 H         1 UNK         0.0482 
     84 H84        22.9661  -42.8941  -55.7226 H         1 UNK         0.3460 
     85 H85        24.5620  -42.2018  -55.6391 H         1 UNK         0.3460 
     86 H86        26.9545  -45.8069  -57.5502 H         1 UNK         0.2989 
     87 H87        25.8016  -46.5333  -60.8452 H         1 UNK         0.0559 
     88 H88        28.5767  -45.8455  -59.7376 H         1 UNK         0.0848 
     89 H89        27.8294  -45.1670  -61.1739 H         1 UNK         0.0848 
     90 H90        28.2605  -46.8693  -61.1383 H         1 UNK         0.0848 
     91 H91        27.1740  -47.5815  -58.3907 H         1 UNK         0.3144 
     92 H92        25.0835  -50.4734  -58.4302 H         1 UNK         0.0727 
     93 H93        28.0928  -50.2802  -58.9713 H         1 UNK         0.0790 
     94 H94        26.9233  -51.1342  -59.9663 H         1 UNK         0.0790 
     95 H95        27.2445  -51.6842  -58.3297 H         1 UNK         0.0790 
     96 H96        27.2088  -49.7547  -56.6870 H         1 UNK         0.3215 
     97 H97        25.0953  -48.1254  -54.2711 H         1 UNK         0.0863 
     98 H98        26.0118  -49.9978  -52.9202 H         1 UNK         0.0808 
     99 H99        26.4700  -50.8658  -54.3844 H         1 UNK         0.0808 
    100 H100       24.7729  -50.5807  -54.0200 H         1 UNK         0.0808 
    101 H101       27.9208  -48.8511  -54.9639 H         1 UNK         0.3118 
    102 H102       28.9700  -45.5110  -54.6272 H         1 UNK         0.0546 
    103 H103       29.1174  -46.1614  -52.2394 H         1 UNK         0.0828 
    104 H104       30.6540  -46.4716  -53.0388 H         1 UNK         0.0828 
    105 H105       29.5645  -47.8074  -52.6818 H         1 UNK         0.0828 
    106 H106       30.5290  -47.8024  -55.0300 H         1 UNK         0.3005 
    107 H107       29.7157  -48.6438  -58.3425 H         1 UNK         0.1257 
    108 H108       31.1762  -46.6013  -58.6526 H         1 UNK         0.0775 
    109 H109       31.9442  -48.1188  -58.9876 H         1 UNK         0.0775 
    110 H110       34.1756  -45.1106  -57.0987 H         1 UNK         0.0840 
    111 H111       32.8609  -45.0369  -58.2329 H         1 UNK         0.0840 
    112 H112       31.7967  -49.5986  -56.7380 H         1 UNK         0.2987 
    113 H113       30.2175  -51.4074  -54.2824 H         1 UNK         0.0785 
    114 H114       29.4909  -53.0090  -56.0642 H         1 UNK         0.0798 
    115 H115       30.9351  -53.5783  -55.2473 H         1 UNK         0.0798 
    116 H116       31.0541  -52.8572  -56.8537 H         1 UNK         0.0798 
    117 H117       32.7805  -51.8842  -55.3252 H         1 UNK         0.3079 
    118 H118       34.4920  -50.8941  -53.5668 H         1 UNK         0.0794 
    119 H119       34.6179  -49.4974  -56.3150 H         1 UNK         0.0786 
    120 H120       34.6715  -51.2357  -56.0515 H         1 UNK         0.0786 
    121 H121       35.9916  -50.2323  -55.5007 H         1 UNK         0.0786 
    122 H122       33.8835  -48.1020  -53.6958 H         1 UNK         0.3032 
    123 H123       36.8001  -47.1854  -51.7834 H         1 UNK         0.1094 
    124 H124       35.5001  -46.1583  -54.3646 H         1 UNK         0.0794 
    125 H125       36.2699  -45.1035  -53.1750 H         1 UNK         0.0794 
    126 H126       37.2101  -46.3200  -54.0233 H         1 UNK         0.0794 
    127 H127       33.9107  -47.2998  -51.8749 H         1 UNK         0.3016 
@<TRIPOS>BOND
     1    1    2 1    
     2    1   67 1    
     3    1   68 1    
     4    1   69 1    
     5    2    3 2    
     6    2    4 am   BACKBONE|DICT|INTERRES
     7    4    5 1    
     8    4   70 1    
     9    5    6 1    
    10    5   65 1    
    11    5   71 1    
    12    6    7 1    
    13    6   72 1    
    14    6   73 1    
    15    7    8 1    
    16    8    9 1    
    17    8   74 1    
    18    8   75 1    
    19    9   10 ar   
    20    9   14 ar   
    21   10   11 ar   
    22   10   76 1    
    23   11   12 ar   
    24   11   48 1    
    25   12   13 ar   
    26   12   77 1    
    27   13   14 ar   
    28   13   15 1    
    29   14   78 1    
    30   15   16 1    
    31   15   79 1    
    32   15   80 1    
    33   16   17 1    
    34   17   18 1    
    35   17   81 1    
    36   17   82 1    
    37   18   19 1    
    38   18   22 1    
    39   18   83 1    
    40   19   20 am   BACKBONE|DICT|INTERRES
    41   19   21 2    
    42   20   84 1    
    43   20   85 1    
    44   22   23 am   BACKBONE|DICT|INTERRES
    45   22   86 1    
    46   23   24 2    
    47   23   25 1    
    48   25   26 1    
    49   25   27 1    
    50   25   87 1    
    51   26   88 1    
    52   26   89 1    
    53   26   90 1    
    54   27   28 am   BACKBONE|DICT|INTERRES
    55   27   91 1    
    56   28   29 2    
    57   28   30 1    
    58   30   31 1    
    59   30   32 1    
    60   30   92 1    
    61   31   93 1    
    62   31   94 1    
    63   31   95 1    
    64   32   33 am   BACKBONE|DICT|INTERRES
    65   32   96 1    
    66   33   34 2    
    67   33   35 1    
    68   35   36 1    
    69   35   37 1    
    70   35   97 1    
    71   36   98 1    
    72   36   99 1    
    73   36  100 1    
    74   37   38 am   BACKBONE|DICT|INTERRES
    75   37  101 1    
    76   38   39 2    
    77   38   40 1    
    78   40   41 1    
    79   40   42 1    
    80   40  102 1    
    81   41  103 1    
    82   41  104 1    
    83   41  105 1    
    84   42   43 am   BACKBONE|DICT|INTERRES
    85   42  106 1    
    86   43   44 2    
    87   43   45 1    
    88   45   46 1    
    89   45   49 1    
    90   45  107 1    
    91   46   47 1    
    92   46  108 1    
    93   46  109 1    
    94   47   48 1    
    95   48  110 1    
    96   48  111 1    
    97   49   50 am   BACKBONE|DICT|INTERRES
    98   49  112 1    
    99   50   51 2    
   100   50   52 1    
   101   52   53 1    
   102   52   54 1    
   103   52  113 1    
   104   53  114 1    
   105   53  115 1    
   106   53  116 1    
   107   54   55 am   BACKBONE|DICT|INTERRES
   108   54  117 1    
   109   55   56 2    
   110   55   57 1    
   111   57   58 1    
   112   57   59 1    
   113   57  118 1    
   114   58  119 1    
   115   58  120 1    
   116   58  121 1    
   117   59   60 am   BACKBONE|DICT|INTERRES
   118   59  122 1    
   119   60   61 2    
   120   60   62 1    
   121   62   63 1    
   122   62   64 1    
   123   62  123 1    
   124   63  124 1    
   125   63  125 1    
   126   63  126 1    
   127   64   65 am   BACKBONE|DICT|INTERRES
   128   64  127 1    
   129   65   66 2    
@<TRIPOS>SUBSTRUCTURE
     1 UNK         1 GROUP             0       ****    0 ROOT    
