@<TRIPOS>MOLECULE
3R134
127   129    1
SMALL
USER_CHARGES


@<TRIPOS>ATOM
      1 CA         34.9369  -46.8658  -51.5778 C.3       0 UNK        -0.1968 
      2 C          34.9564  -46.6313  -53.0811 C.2       0 UNK         0.4852 
      3 O          35.9473  -46.1243  -53.6082 O.2       0 UNK        -0.5359 
      4 N          33.8673  -46.9941  -53.7685 N.am      1 UNK        -0.4300 
      5 CA         33.7327  -46.9375  -55.2261 C.3       1 UNK         0.0863 
      6 C6         32.2602  -46.6798  -55.6345 C.3       11 UNK        -0.0953 
      7 S7         32.0980  -45.6686  -57.1379 S.3       11 UNK        -0.2369 
      8 C8         32.4448  -43.9984  -56.4878 C.3       11 UNK         0.0226 
      9 C9         31.4609  -43.5822  -55.4030 C.ar      11 UNK        -0.0699 
     10 C10        31.8607  -43.5180  -54.0643 C.ar      11 UNK        -0.0804 
     11 C11        30.9505  -43.1471  -53.0703 C.ar      11 UNK        -0.0871 
     12 C12        29.6319  -42.8416  -53.4284 C.ar      11 UNK        -0.1008 
     13 C13        29.2168  -42.8929  -54.7646 C.ar      11 UNK        -0.0735 
     14 C14        30.1472  -43.2586  -55.7462 C.ar      11 UNK        -0.0945 
     15 C15        27.7704  -42.5189  -55.1027 C.3       11 UNK         0.0169 
     16 S16        27.1814  -43.1036  -56.7307 S.3       11 UNK        -0.2669 
     17 C17        25.4221  -42.6178  -56.6659 C.3       11 UNK        -0.0850 
     18 CA         24.5812  -43.2171  -57.8256 C.3       10 UNK         0.0855 
     19 C          24.8420  -42.4912  -59.1811 C.2       10 UNK         0.5543 
     20 N          25.2848  -43.1662  -60.2365 N.am      10 UNK        -0.7343 
     21 O          24.6214  -41.2865  -59.2787 O.2       10 UNK        -0.5027 
     22 N          24.7141  -44.6793  -57.8672 N.am      10 UNK        -0.4495 
     23 C          23.8691  -45.5285  -58.4615 C.2       10 UNK         0.4903 
     24 O          22.7893  -45.1932  -58.9507 O.2       10 UNK        -0.4860 
     25 CA         24.3305  -46.9981  -58.5222 C.3       9 UNK         0.0227 
     26 CB         23.5824  -47.8200  -59.5934 C.3       9 UNK        -0.1964 
     27 N          25.7874  -47.1353  -58.6748 N.am      9 UNK        -0.4231 
     28 C          26.5457  -46.6946  -59.6945 C.2       9 UNK         0.5014 
     29 O          26.0846  -46.0885  -60.6629 O.2       9 UNK        -0.5270 
     30 CA         28.0743  -46.9120  -59.6229 C.3       8 UNK         0.0284 
     31 CB         28.8199  -45.5711  -59.7536 C.3       8 UNK        -0.1977 
     32 N          28.5258  -47.5679  -58.3948 N.am      8 UNK        -0.4342 
     33 C          28.4049  -48.8700  -58.1005 C.2       8 UNK         0.5039 
     34 O          27.9911  -49.7162  -58.8924 O.2       8 UNK        -0.5547 
     35 CA         28.7552  -49.2840  -56.6562 C.3       7 UNK         0.0281 
     36 CB         30.1578  -49.9115  -56.5979 C.3       7 UNK        -0.1963 
     37 N          28.6640  -48.1727  -55.6961 N.am      7 UNK        -0.4444 
     38 C          27.5313  -47.5185  -55.3929 C.2       7 UNK         0.5104 
     39 O          26.4362  -47.8128  -55.8734 O.2       7 UNK        -0.5100 
     40 CA         27.6482  -46.2811  -54.4834 C.3       6 UNK         0.0396 
     41 CB         26.3731  -46.0240  -53.6542 C.3       6 UNK        -0.1801 
     42 N          28.8521  -46.2432  -53.6454 N.am      6 UNK        -0.4747 
     43 C          29.1645  -47.0754  -52.6418 C.2       6 UNK         0.5012 
     44 O          28.4652  -48.0266  -52.2862 O.2       6 UNK        -0.5003 
     45 CA         30.4854  -46.7633  -51.9127 C.3       5 UNK         0.0782 
     46 C46        30.3310  -45.5599  -50.9487 C.3       11 UNK        -0.0868 
     47 S47        31.8869  -44.6159  -50.8678 S.3       11 UNK        -0.2515 
     48 C48        31.4031  -43.0236  -51.6178 C.3       11 UNK         0.0199 
     49 N          30.9944  -47.9542  -51.2248 N.am      5 UNK        -0.4607 
     50 C          31.5823  -48.9864  -51.8380 C.2       4 UNK         0.5031 
     51 O          31.9270  -48.9676  -53.0258 O.2       4 UNK        -0.5119 
     52 CA         31.8370  -50.2344  -50.9809 C.3       4 UNK         0.0263 
     53 CB         30.5197  -50.8603  -50.4849 C.3       4 UNK        -0.1967 
     54 N          32.5632  -51.2088  -51.7865 N.am      4 UNK        -0.4237 
     55 C          33.4395  -52.1184  -51.3447 C.2       3 UNK         0.4908 
     56 O          33.7037  -52.2927  -50.1545 O.2       3 UNK        -0.5102 
     57 CA         34.1447  -52.9855  -52.4092 C.3       3 UNK         0.0241 
     58 CB         33.5183  -54.3890  -52.4593 C.3       3 UNK        -0.1971 
     59 N          34.1111  -52.3964  -53.7538 N.am      3 UNK        -0.4139 
     60 C          34.7986  -51.3060  -54.1204 C.2       2 UNK         0.5016 
     61 O          35.6176  -50.7426  -53.3921 O.2       2 UNK        -0.5319 
     62 CA         34.4816  -50.6919  -55.4912 C.3       2 UNK         0.0286 
     63 CB         33.4871  -51.4988  -56.3526 C.3       2 UNK        -0.1963 
     64 N          33.9346  -49.3662  -55.2263 N.am      2 UNK        -0.4790 
     65 C          34.2820  -48.2343  -55.8494 C.2       1 UNK         0.5024 
     66 O          35.0208  -48.1849  -56.8335 O.2       1 UNK        -0.4888 
     67 H67        35.2496  -45.9635  -51.0529 H         1 UNK         0.0892 
     68 H68        33.9434  -47.1315  -51.2185 H         1 UNK         0.0892 
     69 H69        35.6226  -47.6709  -51.3152 H         1 UNK         0.0892 
     70 H70        33.1227  -47.4890  -53.2900 H         1 UNK         0.3107 
     71 H71        34.3505  -46.1146  -55.5911 H         1 UNK         0.0773 
     72 H72        31.7110  -47.6097  -55.7707 H         1 UNK         0.0680 
     73 H73        31.7252  -46.1649  -54.8412 H         1 UNK         0.0680 
     74 H74        32.3945  -43.2851  -57.3116 H         1 UNK         0.0650 
     75 H75        33.4693  -43.9586  -56.1155 H         1 UNK         0.0650 
     76 H76        32.8809  -43.7556  -53.7934 H         1 UNK         0.1397 
     77 H77        28.9261  -42.5433  -52.6647 H         1 UNK         0.1363 
     78 H78        29.8641  -43.2978  -56.7882 H         1 UNK         0.1355 
     79 H79        27.1089  -42.9216  -54.3341 H         1 UNK         0.0707 
     80 H80        27.6728  -41.4333  -55.0637 H         1 UNK         0.0707 
     81 H81        25.0077  -42.9548  -55.7144 H         1 UNK         0.1034 
     82 H82        25.3493  -41.5285  -56.6489 H         1 UNK         0.1034 
     83 H83        23.5357  -43.0061  -57.5925 H         1 UNK         0.0482 
     84 H84        25.4391  -42.6737  -61.1014 H         1 UNK         0.3460 
     85 H85        25.4594  -44.1629  -60.1904 H         1 UNK         0.3460 
     86 H86        25.5850  -45.0406  -57.5080 H         1 UNK         0.2989 
     87 H87        24.0885  -47.4294  -57.5498 H         1 UNK         0.0559 
     88 H88        22.5096  -47.8336  -59.3976 H         1 UNK         0.0848 
     89 H89        23.9208  -48.8560  -59.6064 H         1 UNK         0.0848 
     90 H90        23.7238  -47.4080  -60.5931 H         1 UNK         0.0848 
     91 H91        26.2503  -47.5812  -57.8893 H         1 UNK         0.3144 
     92 H92        28.3490  -47.5422  -60.4711 H         1 UNK         0.0727 
     93 H93        28.5666  -44.8864  -58.9431 H         1 UNK         0.0790 
     94 H94        28.5704  -45.0709  -60.6904 H         1 UNK         0.0790 
     95 H95        29.9008  -45.7142  -59.7458 H         1 UNK         0.0790 
     96 H96        28.9033  -46.9622  -57.6811 H         1 UNK         0.3215 
     97 H97        28.0304  -50.0403  -56.3468 H         1 UNK         0.0863 
     98 H98        30.4645  -50.1213  -55.5727 H         1 UNK         0.0808 
     99 H99        30.9115  -49.2720  -57.0573 H         1 UNK         0.0808 
    100 H100       30.1752  -50.8576  -57.1405 H         1 UNK         0.0808 
    101 H101       29.5177  -47.8788  -55.2469 H         1 UNK         0.3118 
    102 H102       27.7560  -45.4444  -55.1703 H         1 UNK         0.0546 
    103 H103       26.1424  -46.8610  -52.9947 H         1 UNK         0.0828 
    104 H104       25.5084  -45.8745  -54.3020 H         1 UNK         0.0828 
    105 H105       26.4723  -45.1291  -53.0403 H         1 UNK         0.0828 
    106 H106       29.4765  -45.4709  -53.8421 H         1 UNK         0.3005 
    107 H107       31.2015  -46.4939  -52.6882 H         1 UNK         0.1257 
    108 H108       30.0584  -45.8883  -49.9443 H         1 UNK         0.0775 
    109 H109       29.5321  -44.8824  -51.2565 H         1 UNK         0.0775 
    110 H110       30.6238  -42.5673  -51.0052 H         1 UNK         0.0840 
    111 H111       32.2558  -42.3446  -51.5719 H         1 UNK         0.0840 
    112 H112       30.7291  -48.0512  -50.2557 H         1 UNK         0.2987 
    113 H113       32.4507  -49.9369  -50.1278 H         1 UNK         0.0785 
    114 H114       29.9680  -50.1743  -49.8414 H         1 UNK         0.0798 
    115 H115       30.7045  -51.7640  -49.9038 H         1 UNK         0.0798 
    116 H116       29.8644  -51.1261  -51.3157 H         1 UNK         0.0798 
    117 H117       32.4376  -51.0916  -52.7826 H         1 UNK         0.3079 
    118 H118       35.1892  -53.0870  -52.1064 H         1 UNK         0.0794 
    119 H119       34.0504  -55.0370  -53.1562 H         1 UNK         0.0786 
    120 H120       32.4712  -54.3545  -52.7630 H         1 UNK         0.0786 
    121 H121       33.5574  -54.8689  -51.4802 H         1 UNK         0.0786 
    122 H122       33.4664  -52.8060  -54.4147 H         1 UNK         0.3032 
    123 H123       35.4298  -50.6121  -56.0282 H         1 UNK         0.1094 
    124 H124       32.5173  -51.6137  -55.8678 H         1 UNK         0.0794 
    125 H125       33.3150  -51.0044  -57.3090 H         1 UNK         0.0794 
    126 H126       33.8741  -52.4938  -56.5765 H         1 UNK         0.0794 
    127 H127       33.3341  -49.2939  -54.4113 H         1 UNK         0.3016 
@<TRIPOS>BOND
     1    1    2 1    
     2    1   67 1    
     3    1   68 1    
     4    1   69 1    
     5    2    3 2    
     6    2    4 am   BACKBONE|DICT|INTERRES
     7    4    5 1    
     8    4   70 1    
     9    5    6 1    
    10    5   65 1    
    11    5   71 1    
    12    6    7 1    
    13    6   72 1    
    14    6   73 1    
    15    7    8 1    
    16    8    9 1    
    17    8   74 1    
    18    8   75 1    
    19    9   10 ar   
    20    9   14 ar   
    21   10   11 ar   
    22   10   76 1    
    23   11   12 ar   
    24   11   48 1    
    25   12   13 ar   
    26   12   77 1    
    27   13   14 ar   
    28   13   15 1    
    29   14   78 1    
    30   15   16 1    
    31   15   79 1    
    32   15   80 1    
    33   16   17 1    
    34   17   18 1    
    35   17   81 1    
    36   17   82 1    
    37   18   19 1    
    38   18   22 1    
    39   18   83 1    
    40   19   20 am   BACKBONE|DICT|INTERRES
    41   19   21 2    
    42   20   84 1    
    43   20   85 1    
    44   22   23 am   BACKBONE|DICT|INTERRES
    45   22   86 1    
    46   23   24 2    
    47   23   25 1    
    48   25   26 1    
    49   25   27 1    
    50   25   87 1    
    51   26   88 1    
    52   26   89 1    
    53   26   90 1    
    54   27   28 am   BACKBONE|DICT|INTERRES
    55   27   91 1    
    56   28   29 2    
    57   28   30 1    
    58   30   31 1    
    59   30   32 1    
    60   30   92 1    
    61   31   93 1    
    62   31   94 1    
    63   31   95 1    
    64   32   33 am   BACKBONE|DICT|INTERRES
    65   32   96 1    
    66   33   34 2    
    67   33   35 1    
    68   35   36 1    
    69   35   37 1    
    70   35   97 1    
    71   36   98 1    
    72   36   99 1    
    73   36  100 1    
    74   37   38 am   BACKBONE|DICT|INTERRES
    75   37  101 1    
    76   38   39 2    
    77   38   40 1    
    78   40   41 1    
    79   40   42 1    
    80   40  102 1    
    81   41  103 1    
    82   41  104 1    
    83   41  105 1    
    84   42   43 am   BACKBONE|DICT|INTERRES
    85   42  106 1    
    86   43   44 2    
    87   43   45 1    
    88   45   46 1    
    89   45   49 1    
    90   45  107 1    
    91   46   47 1    
    92   46  108 1    
    93   46  109 1    
    94   47   48 1    
    95   48  110 1    
    96   48  111 1    
    97   49   50 am   BACKBONE|DICT|INTERRES
    98   49  112 1    
    99   50   51 2    
   100   50   52 1    
   101   52   53 1    
   102   52   54 1    
   103   52  113 1    
   104   53  114 1    
   105   53  115 1    
   106   53  116 1    
   107   54   55 am   BACKBONE|DICT|INTERRES
   108   54  117 1    
   109   55   56 2    
   110   55   57 1    
   111   57   58 1    
   112   57   59 1    
   113   57  118 1    
   114   58  119 1    
   115   58  120 1    
   116   58  121 1    
   117   59   60 am   BACKBONE|DICT|INTERRES
   118   59  122 1    
   119   60   61 2    
   120   60   62 1    
   121   62   63 1    
   122   62   64 1    
   123   62  123 1    
   124   63  124 1    
   125   63  125 1    
   126   63  126 1    
   127   64   65 am   BACKBONE|DICT|INTERRES
   128   64  127 1    
   129   65   66 2    
@<TRIPOS>SUBSTRUCTURE
     1 UNK         1 GROUP             0       ****    0 ROOT    
