@<TRIPOS>MOLECULE
3R134
127   129    1
SMALL
USER_CHARGES


@<TRIPOS>ATOM
      1 CA         31.7922  -45.0405  -48.7566 C.3       0 UNK        -0.1968 
      2 C          33.2204  -45.1940  -49.2591 C.2       0 UNK         0.4852 
      3 O          34.0882  -45.6378  -48.5059 O.2       0 UNK        -0.5359 
      4 N          33.4666  -44.8244  -50.5227 N.am      1 UNK        -0.4300 
      5 CA         34.7628  -44.9348  -51.2006 C.3       1 UNK         0.0863 
      6 C6         34.7545  -44.2065  -52.5640 C.3       11 UNK        -0.0953 
      7 S7         34.7995  -42.3869  -52.4347 S.3       11 UNK        -0.2369 
      8 C8         33.0537  -41.8935  -52.6630 C.3       11 UNK         0.0226 
      9 C9         32.4246  -42.1410  -54.0388 C.ar      11 UNK        -0.0699 
     10 C10        33.0490  -42.8768  -55.0567 C.ar      11 UNK        -0.0804 
     11 C11        32.3684  -43.1803  -56.2372 C.ar      11 UNK        -0.0871 
     12 C12        31.1023  -42.6392  -56.4588 C.ar      11 UNK        -0.1008 
     13 C13        30.4655  -41.8922  -55.4658 C.ar      11 UNK        -0.0735 
     14 C14        31.1306  -41.6542  -54.2589 C.ar      11 UNK        -0.0945 
     15 C15        29.0466  -41.3804  -55.6787 C.3       11 UNK         0.0169 
     16 S16        27.8264  -42.7376  -55.6382 S.3       11 UNK        -0.2669 
     17 C17        27.9507  -43.3945  -57.3382 C.3       11 UNK        -0.0850 
     18 CA         26.5760  -43.8013  -57.9173 C.3       10 UNK         0.0855 
     19 C          26.6664  -44.0105  -59.4523 C.2       10 UNK         0.5543 
     20 N          26.0492  -43.1408  -60.2397 N.am      10 UNK        -0.7343 
     21 O          27.3336  -44.9252  -59.9298 O.2       10 UNK        -0.5027 
     22 N          26.0625  -45.0102  -57.2654 N.am      10 UNK        -0.4495 
     23 C          24.7805  -45.3918  -57.2984 C.2       10 UNK         0.4903 
     24 O          23.8652  -44.6926  -57.7376 O.2       10 UNK        -0.4860 
     25 CA         24.4917  -46.8074  -56.7696 C.3       9 UNK         0.0227 
     26 CB         23.0186  -47.2360  -56.9366 C.3       9 UNK        -0.1964 
     27 N          25.3978  -47.7992  -57.3583 N.am      9 UNK        -0.4231 
     28 C          25.5505  -48.1103  -58.6566 C.2       9 UNK         0.5014 
     29 O          24.8718  -47.6317  -59.5663 O.2       9 UNK        -0.5270 
     30 CA         26.6523  -49.1281  -59.0145 C.3       8 UNK         0.0284 
     31 CB         27.8641  -48.4065  -59.6265 C.3       8 UNK        -0.1977 
     32 N          27.1000  -49.9351  -57.8760 N.am      8 UNK        -0.4342 
     33 C          26.3588  -50.8738  -57.2708 C.2       8 UNK         0.5039 
     34 O          25.2527  -51.2380  -57.6716 O.2       8 UNK        -0.5547 
     35 CA         26.9265  -51.4778  -55.9767 C.3       7 UNK         0.0281 
     36 CB         27.8604  -52.6557  -56.2971 C.3       7 UNK        -0.1963 
     37 N          27.6298  -50.4960  -55.1433 N.am      7 UNK        -0.4444 
     38 C          27.0605  -49.4289  -54.5632 C.2       7 UNK         0.5104 
     39 O          25.8633  -49.1611  -54.6521 O.2       7 UNK        -0.5100 
     40 CA         27.9839  -48.4707  -53.7919 C.3       6 UNK         0.0396 
     41 CB         28.3400  -49.0374  -52.4088 C.3       6 UNK        -0.1801 
     42 N          29.2075  -48.1587  -54.5307 N.am      6 UNK        -0.4747 
     43 C          29.2548  -47.4491  -55.6696 C.2       6 UNK         0.5012 
     44 O          28.2700  -46.9299  -56.2005 O.2       6 UNK        -0.5003 
     45 CA         30.6390  -47.3323  -56.3420 C.3       5 UNK         0.0782 
     46 C46        31.4290  -46.1455  -55.7406 C.3       11 UNK        -0.0868 
     47 S47        33.0631  -45.8666  -56.5240 S.3       11 UNK        -0.2515 
     48 C48        32.9497  -44.1786  -57.2295 C.3       11 UNK         0.0199 
     49 N          31.3800  -48.5958  -56.2570 N.am      5 UNK        -0.4607 
     50 C          31.0184  -49.7305  -56.8713 C.2       4 UNK         0.5031 
     51 O          30.0225  -49.8349  -57.5868 O.2       4 UNK        -0.5119 
     52 CA         31.8908  -50.9681  -56.6049 C.3       4 UNK         0.0263 
     53 CB         33.1701  -50.9232  -57.4557 C.3       4 UNK        -0.1967 
     54 N          32.2434  -51.1235  -55.1907 N.am      4 UNK        -0.4237 
     55 C          31.3577  -51.3273  -54.2040 C.2       3 UNK         0.4908 
     56 O          30.1473  -51.4324  -54.3854 O.2       3 UNK        -0.5102 
     57 CA         31.8980  -51.3970  -52.7667 C.3       3 UNK         0.0241 
     58 CB         32.2064  -52.8519  -52.3792 C.3       3 UNK        -0.1971 
     59 N          33.0838  -50.5669  -52.5434 N.am      3 UNK        -0.4139 
     60 C          33.1116  -49.2321  -52.6489 C.2       2 UNK         0.5016 
     61 O          32.1398  -48.5374  -52.9655 O.2       2 UNK        -0.5319 
     62 CA         34.4721  -48.5743  -52.4117 C.3       2 UNK         0.0286 
     63 CB         35.3229  -48.6281  -53.6966 C.3       2 UNK        -0.1963 
     64 N          34.2591  -47.1889  -52.0115 N.am      2 UNK        -0.4790 
     65 C          35.1680  -46.4051  -51.4194 C.2       1 UNK         0.5024 
     66 O          36.2884  -46.7885  -51.0795 O.2       1 UNK        -0.4888 
     67 H67        31.7680  -44.3771  -47.8925 H         1 UNK         0.0892 
     68 H68        31.1321  -44.6272  -49.5191 H         1 UNK         0.0892 
     69 H69        31.3953  -46.0092  -48.4541 H         1 UNK         0.0892 
     70 H70        32.7101  -44.4628  -51.0838 H         1 UNK         0.3107 
     71 H71        35.5221  -44.4779  -50.5619 H         1 UNK         0.0773 
     72 H72        33.8883  -44.5321  -53.1404 H         1 UNK         0.0680 
     73 H73        35.6291  -44.4835  -53.1570 H         1 UNK         0.0680 
     74 H74        32.9885  -40.8267  -52.4441 H         1 UNK         0.0650 
     75 H75        32.4503  -42.3950  -51.9059 H         1 UNK         0.0650 
     76 H76        34.0424  -43.2776  -54.9299 H         1 UNK         0.1397 
     77 H77        30.5924  -42.8536  -57.3852 H         1 UNK         0.1363 
     78 H78        30.6313  -41.0979  -53.4770 H         1 UNK         0.1355 
     79 H79        28.9818  -40.8342  -56.6207 H         1 UNK         0.0707 
     80 H80        28.7850  -40.6632  -54.8991 H         1 UNK         0.0707 
     81 H81        28.3987  -42.6287  -57.9737 H         1 UNK         0.1034 
     82 H82        28.6382  -44.2427  -57.3452 H         1 UNK         0.1034 
     83 H83        25.8772  -42.9844  -57.7231 H         1 UNK         0.0482 
     84 H84        25.5018  -42.3866  -59.8546 H         1 UNK         0.3460 
     85 H85        26.1133  -43.2538  -61.2393 H         1 UNK         0.3460 
     86 H86        26.7590  -45.6578  -56.9117 H         1 UNK         0.2989 
     87 H87        24.7108  -46.7879  -55.7011 H         1 UNK         0.0559 
     88 H88        22.3523  -46.5542  -56.4068 H         1 UNK         0.0848 
     89 H89        22.8497  -48.2340  -56.5321 H         1 UNK         0.0848 
     90 H90        22.7118  -47.2415  -57.9829 H         1 UNK         0.0848 
     91 H91        26.0033  -48.2652  -56.6941 H         1 UNK         0.3144 
     92 H92        26.2409  -49.8038  -59.7672 H         1 UNK         0.0727 
     93 H93        28.3227  -47.7179  -58.9159 H         1 UNK         0.0790 
     94 H94        27.5712  -47.8215  -60.4995 H         1 UNK         0.0790 
     95 H95        28.6276  -49.1137  -59.9507 H         1 UNK         0.0790 
     96 H96        28.0428  -49.7620  -57.5361 H         1 UNK         0.3215 
     97 H97        26.0842  -51.8591  -55.3956 H         1 UNK         0.0863 
     98 H98        28.1925  -53.1564  -55.3875 H         1 UNK         0.0808 
     99 H99        28.7470  -52.3302  -56.8424 H         1 UNK         0.0808 
    100 H100       27.3536  -53.4018  -56.9107 H         1 UNK         0.0808 
    101 H101       28.6164  -50.6809  -54.9646 H         1 UNK         0.3118 
    102 H102       27.4414  -47.5349  -53.6409 H         1 UNK         0.0546 
    103 H103       28.8731  -49.9850  -52.4814 H         1 UNK         0.0828 
    104 H104       27.4399  -49.2162  -51.8194 H         1 UNK         0.0828 
    105 H105       28.9651  -48.3449  -51.8447 H         1 UNK         0.0828 
    106 H106       30.0736  -48.5336  -54.1631 H         1 UNK         0.3005 
    107 H107       30.4626  -47.1228  -57.3996 H         1 UNK         0.1257 
    108 H108       30.8224  -45.2434  -55.8072 H         1 UNK         0.0775 
    109 H109       31.6024  -46.3045  -54.6744 H         1 UNK         0.0775 
    110 H110       33.9444  -43.8509  -57.5347 H         1 UNK         0.0840 
    111 H111       32.3478  -44.2190  -58.1387 H         1 UNK         0.0840 
    112 H112       32.1964  -48.5945  -55.6635 H         1 UNK         0.2987 
    113 H113       31.3144  -51.8469  -56.9019 H         1 UNK         0.0785 
    114 H114       32.9293  -50.8213  -58.5150 H         1 UNK         0.0798 
    115 H115       33.7525  -51.8381  -57.3451 H         1 UNK         0.0798 
    116 H116       33.8099  -50.0822  -57.1850 H         1 UNK         0.0798 
    117 H117       33.2215  -51.0590  -54.9516 H         1 UNK         0.3079 
    118 H118       31.1106  -51.0287  -52.1059 H         1 UNK         0.0794 
    119 H119       32.4996  -52.9307  -51.3321 H         1 UNK         0.0786 
    120 H120       33.0090  -53.2723  -52.9865 H         1 UNK         0.0786 
    121 H121       31.3287  -53.4857  -52.5155 H         1 UNK         0.0786 
    122 H122       33.9314  -51.0533  -52.2872 H         1 UNK         0.3032 
    123 H123       34.9828  -49.1037  -51.6037 H         1 UNK         0.1094 
    124 H124       34.8468  -48.0875  -54.5162 H         1 UNK         0.0794 
    125 H125       36.3102  -48.1927  -53.5416 H         1 UNK         0.0794 
    126 H126       35.4776  -49.6557  -54.0274 H         1 UNK         0.0794 
    127 H127       33.3352  -46.8335  -52.2249 H         1 UNK         0.3016 
@<TRIPOS>BOND
     1    1    2 1    
     2    1   67 1    
     3    1   68 1    
     4    1   69 1    
     5    2    3 2    
     6    2    4 am   BACKBONE|DICT|INTERRES
     7    4    5 1    
     8    4   70 1    
     9    5    6 1    
    10    5   65 1    
    11    5   71 1    
    12    6    7 1    
    13    6   72 1    
    14    6   73 1    
    15    7    8 1    
    16    8    9 1    
    17    8   74 1    
    18    8   75 1    
    19    9   10 ar   
    20    9   14 ar   
    21   10   11 ar   
    22   10   76 1    
    23   11   12 ar   
    24   11   48 1    
    25   12   13 ar   
    26   12   77 1    
    27   13   14 ar   
    28   13   15 1    
    29   14   78 1    
    30   15   16 1    
    31   15   79 1    
    32   15   80 1    
    33   16   17 1    
    34   17   18 1    
    35   17   81 1    
    36   17   82 1    
    37   18   19 1    
    38   18   22 1    
    39   18   83 1    
    40   19   20 am   BACKBONE|DICT|INTERRES
    41   19   21 2    
    42   20   84 1    
    43   20   85 1    
    44   22   23 am   BACKBONE|DICT|INTERRES
    45   22   86 1    
    46   23   24 2    
    47   23   25 1    
    48   25   26 1    
    49   25   27 1    
    50   25   87 1    
    51   26   88 1    
    52   26   89 1    
    53   26   90 1    
    54   27   28 am   BACKBONE|DICT|INTERRES
    55   27   91 1    
    56   28   29 2    
    57   28   30 1    
    58   30   31 1    
    59   30   32 1    
    60   30   92 1    
    61   31   93 1    
    62   31   94 1    
    63   31   95 1    
    64   32   33 am   BACKBONE|DICT|INTERRES
    65   32   96 1    
    66   33   34 2    
    67   33   35 1    
    68   35   36 1    
    69   35   37 1    
    70   35   97 1    
    71   36   98 1    
    72   36   99 1    
    73   36  100 1    
    74   37   38 am   BACKBONE|DICT|INTERRES
    75   37  101 1    
    76   38   39 2    
    77   38   40 1    
    78   40   41 1    
    79   40   42 1    
    80   40  102 1    
    81   41  103 1    
    82   41  104 1    
    83   41  105 1    
    84   42   43 am   BACKBONE|DICT|INTERRES
    85   42  106 1    
    86   43   44 2    
    87   43   45 1    
    88   45   46 1    
    89   45   49 1    
    90   45  107 1    
    91   46   47 1    
    92   46  108 1    
    93   46  109 1    
    94   47   48 1    
    95   48  110 1    
    96   48  111 1    
    97   49   50 am   BACKBONE|DICT|INTERRES
    98   49  112 1    
    99   50   51 2    
   100   50   52 1    
   101   52   53 1    
   102   52   54 1    
   103   52  113 1    
   104   53  114 1    
   105   53  115 1    
   106   53  116 1    
   107   54   55 am   BACKBONE|DICT|INTERRES
   108   54  117 1    
   109   55   56 2    
   110   55   57 1    
   111   57   58 1    
   112   57   59 1    
   113   57  118 1    
   114   58  119 1    
   115   58  120 1    
   116   58  121 1    
   117   59   60 am   BACKBONE|DICT|INTERRES
   118   59  122 1    
   119   60   61 2    
   120   60   62 1    
   121   62   63 1    
   122   62   64 1    
   123   62  123 1    
   124   63  124 1    
   125   63  125 1    
   126   63  126 1    
   127   64   65 am   BACKBONE|DICT|INTERRES
   128   64  127 1    
   129   65   66 2    
@<TRIPOS>SUBSTRUCTURE
     1 UNK         1 GROUP             0       ****    0 ROOT    
