@<TRIPOS>MOLECULE
3R134
127   129    1
SMALL
USER_CHARGES


@<TRIPOS>ATOM
      1 CA         37.1858  -44.9921  -48.6931 C.3       0 UNK        -0.1968 
      2 C          37.1008  -45.4926  -50.1278 C.2       0 UNK         0.4852 
      3 O          38.0936  -45.9927  -50.6598 O.2       0 UNK        -0.5359 
      4 N          35.9268  -45.3552  -50.7582 N.am      1 UNK        -0.4300 
      5 CA         35.6415  -45.8428  -52.1115 C.3       1 UNK         0.0863 
      6 C6         34.3966  -45.1385  -52.7113 C.3       11 UNK        -0.0953 
      7 S7         34.5233  -44.9440  -54.5219 S.3       11 UNK        -0.2369 
      8 C8         33.9334  -43.2355  -54.7645 C.3       11 UNK         0.0226 
      9 C9         32.4126  -43.1603  -54.8088 C.ar      11 UNK        -0.0699 
     10 C10        31.6640  -43.2430  -53.6315 C.ar      11 UNK        -0.0804 
     11 C11        30.2666  -43.2060  -53.6676 C.ar      11 UNK        -0.0871 
     12 C12        29.6152  -43.0493  -54.8941 C.ar      11 UNK        -0.1008 
     13 C13        30.3536  -42.9329  -56.0760 C.ar      11 UNK        -0.0735 
     14 C14        31.7496  -42.9999  -56.0294 C.ar      11 UNK        -0.0945 
     15 C15        29.6441  -42.7253  -57.4030 C.3       11 UNK         0.0169 
     16 S16        29.3923  -44.3069  -58.2531 S.3       11 UNK        -0.2669 
     17 C17        28.3443  -43.7799  -59.6538 C.3       11 UNK        -0.0850 
     18 CA         26.8218  -43.8161  -59.3440 C.3       10 UNK         0.0855 
     19 C          26.0054  -43.4966  -60.6301 C.2       10 UNK         0.5543 
     20 N          25.3130  -44.4568  -61.2313 N.am      10 UNK        -0.7343 
     21 O          26.0078  -42.3573  -61.0893 O.2       10 UNK        -0.5027 
     22 N          26.4511  -45.0592  -58.6552 N.am      10 UNK        -0.4495 
     23 C          25.2745  -45.3581  -58.0926 C.2       10 UNK         0.4903 
     24 O          24.3087  -44.5944  -58.0733 O.2       10 UNK        -0.4860 
     25 CA         25.1760  -46.7369  -57.4074 C.3       9 UNK         0.0227 
     26 CB         23.7937  -47.3973  -57.5897 C.3       9 UNK        -0.1964 
     27 N          26.2639  -47.6555  -57.7753 N.am      9 UNK        -0.4231 
     28 C          26.5111  -48.1920  -58.9820 C.2       9 UNK         0.5014 
     29 O          25.8032  -48.0166  -59.9742 O.2       9 UNK        -0.5270 
     30 CA         27.7849  -49.0378  -59.1158 C.3       8 UNK         0.0284 
     31 CB         28.9859  -48.1468  -59.4792 C.3       8 UNK        -0.1977 
     32 N          28.0720  -49.7645  -57.8771 N.am      8 UNK        -0.4342 
     33 C          27.8759  -51.0781  -57.7088 C.2       8 UNK         0.5039 
     34 O          27.4896  -51.8378  -58.5985 O.2       8 UNK        -0.5547 
     35 CA         28.1563  -51.6509  -56.3110 C.3       7 UNK         0.0281 
     36 CB         29.6494  -51.9820  -56.1510 C.3       7 UNK        -0.1963 
     37 N          27.7247  -50.7743  -55.2186 N.am      7 UNK        -0.4444 
     38 C          26.4430  -50.5264  -54.9069 C.2       7 UNK         0.5104 
     39 O          25.4877  -50.9524  -55.5560 O.2       7 UNK        -0.5100 
     40 CA         26.1701  -49.6820  -53.6530 C.3       6 UNK         0.0396 
     41 CB         26.2426  -50.5611  -52.3940 C.3       6 UNK        -0.1801 
     42 N          27.1249  -48.5823  -53.5245 N.am      6 UNK        -0.4747 
     43 C          26.8200  -47.2786  -53.6086 C.2       6 UNK         0.5012 
     44 O          25.6763  -46.8450  -53.7472 O.2       6 UNK        -0.5003 
     45 CA         27.9965  -46.2813  -53.5112 C.3       5 UNK         0.0782 
     46 C46        28.1397  -45.8144  -52.0358 C.3       11 UNK        -0.0868 
     47 S47        29.6958  -44.9586  -51.6126 S.3       11 UNK        -0.2515 
     48 C48        29.4758  -43.3195  -52.3727 C.3       11 UNK         0.0199 
     49 N          29.2517  -46.8052  -54.0588 N.am      5 UNK        -0.4607 
     50 C          29.4428  -47.3256  -55.2785 C.2       4 UNK         0.5031 
     51 O          28.5613  -47.4495  -56.1297 O.2       4 UNK        -0.5119 
     52 CA         30.8404  -47.8931  -55.5661 C.3       4 UNK         0.0263 
     53 CB         31.7352  -46.8044  -56.1733 C.3       4 UNK        -0.1967 
     54 N          31.5112  -48.4834  -54.3998 N.am      4 UNK        -0.4237 
     55 C          31.0157  -49.4336  -53.5898 C.2       3 UNK         0.4908 
     56 O          29.8576  -49.8514  -53.6646 O.2       3 UNK        -0.5102 
     57 CA         31.9413  -49.9980  -52.4925 C.3       3 UNK         0.0241 
     58 CB         31.7658  -51.5229  -52.3320 C.3       3 UNK        -0.1971 
     59 N          33.3640  -49.6500  -52.6337 N.am      3 UNK        -0.4139 
     60 C          34.2087  -49.9735  -53.6243 C.2       2 UNK         0.5016 
     61 O          33.8784  -50.6147  -54.6229 O.2       2 UNK        -0.5319 
     62 CA         35.6587  -49.4614  -53.4807 C.3       2 UNK         0.0286 
     63 CB         36.5370  -49.8258  -54.6928 C.3       2 UNK        -0.1963 
     64 N          35.7352  -48.0104  -53.2666 N.am      2 UNK        -0.4790 
     65 C          35.4776  -47.3774  -52.1148 C.2       1 UNK         0.5024 
     66 O          35.0830  -47.9593  -51.1000 O.2       1 UNK        -0.4888 
     67 H67        37.9584  -44.2285  -48.6070 H         1 UNK         0.0892 
     68 H68        36.2440  -44.5606  -48.3546 H         1 UNK         0.0892 
     69 H69        37.4418  -45.8135  -48.0244 H         1 UNK         0.0892 
     70 H70        35.1392  -44.9728  -50.2550 H         1 UNK         0.3107 
     71 H71        36.5134  -45.5980  -52.7230 H         1 UNK         0.0773 
     72 H72        33.4668  -45.6559  -52.4645 H         1 UNK         0.0680 
     73 H73        34.3026  -44.1428  -52.2766 H         1 UNK         0.0680 
     74 H74        34.3215  -42.5830  -53.9813 H         1 UNK         0.0650 
     75 H75        34.3525  -42.8608  -55.6994 H         1 UNK         0.0650 
     76 H76        32.1646  -43.3544  -52.6807 H         1 UNK         0.1397 
     77 H77        28.5353  -43.0089  -54.9315 H         1 UNK         0.1363 
     78 H78        32.3182  -42.9273  -56.9465 H         1 UNK         0.1355 
     79 H79        28.6797  -42.2407  -57.2422 H         1 UNK         0.0707 
     80 H80        30.2259  -42.0572  -58.0400 H         1 UNK         0.0707 
     81 H81        28.6462  -42.7810  -59.9753 H         1 UNK         0.1034 
     82 H82        28.5725  -44.4425  -60.4912 H         1 UNK         0.1034 
     83 H83        26.6091  -43.0077  -58.6423 H         1 UNK         0.0482 
     84 H84        25.3109  -45.3932  -60.8556 H         1 UNK         0.3460 
     85 H85        24.7859  -44.2429  -62.0631 H         1 UNK         0.3460 
     86 H86        27.1915  -45.7402  -58.5804 H         1 UNK         0.2989 
     87 H87        25.3048  -46.5427  -56.3433 H         1 UNK         0.0559 
     88 H88        23.0050  -46.7759  -57.1642 H         1 UNK         0.0848 
     89 H89        23.7484  -48.3640  -57.0877 H         1 UNK         0.0848 
     90 H90        23.5509  -47.5516  -58.6412 H         1 UNK         0.0848 
     91 H91        26.9799  -47.7677  -57.0612 H         1 UNK         0.3144 
     92 H92        27.6277  -49.7358  -59.9408 H         1 UNK         0.0727 
     93 H93        29.2042  -47.4123  -58.7040 H         1 UNK         0.0790 
     94 H94        28.7989  -47.5976  -60.4031 H         1 UNK         0.0790 
     95 H95        29.8854  -48.7427  -59.6342 H         1 UNK         0.0790 
     96 H96        28.3657  -49.2065  -57.0831 H         1 UNK         0.3215 
     97 H97        27.5966  -52.5849  -56.2236 H         1 UNK         0.0863 
     98 H98        29.8519  -52.4480  -55.1864 H         1 UNK         0.0808 
     99 H99        30.2745  -51.0924  -56.2286 H         1 UNK         0.0808 
    100 H100       29.9788  -52.6789  -56.9228 H         1 UNK         0.0808 
    101 H101       28.4620  -50.4136  -54.6149 H         1 UNK         0.3118 
    102 H102       25.1518  -49.2962  -53.7357 H         1 UNK         0.0546 
    103 H103       27.2404  -50.9769  -52.2465 H         1 UNK         0.0828 
    104 H104       25.5457  -51.3977  -52.4603 H         1 UNK         0.0828 
    105 H105       25.9821  -49.9932  -51.5009 H         1 UNK         0.0828 
    106 H106       28.1022  -48.8397  -53.4305 H         1 UNK         0.3005 
    107 H107       27.7323  -45.4170  -54.1237 H         1 UNK         0.1257 
    108 H108       27.3001  -45.1732  -51.7602 H         1 UNK         0.0775 
    109 H109       28.0863  -46.6719  -51.3612 H         1 UNK         0.0775 
    110 H110       28.4166  -43.1142  -52.5345 H         1 UNK         0.0840 
    111 H111       29.8297  -42.5591  -51.6751 H         1 UNK         0.0840 
    112 H112       30.0459  -46.7460  -53.4386 H         1 UNK         0.2987 
    113 H113       30.7247  -48.6875  -56.3052 H         1 UNK         0.0785 
    114 H114       31.2948  -46.4015  -57.0862 H         1 UNK         0.0798 
    115 H115       32.7210  -47.1902  -56.4331 H         1 UNK         0.0798 
    116 H116       31.8687  -45.9698  -55.4848 H         1 UNK         0.0798 
    117 H117       32.4715  -48.2101  -54.2551 H         1 UNK         0.3079 
    118 H118       31.6121  -49.5307  -51.5634 H         1 UNK         0.0794 
    119 H119       32.3981  -51.9139  -51.5350 H         1 UNK         0.0786 
    120 H120       32.0129  -52.0571  -53.2501 H         1 UNK         0.0786 
    121 H121       30.7356  -51.7766  -52.0783 H         1 UNK         0.0786 
    122 H122       33.7583  -49.0958  -51.8769 H         1 UNK         0.3032 
    123 H123       36.0810  -49.9634  -52.6067 H         1 UNK         0.1094 
    124 H124       36.1726  -49.3610  -55.6100 H         1 UNK         0.0794 
    125 H125       37.5702  -49.5115  -54.5439 H         1 UNK         0.0794 
    126 H126       36.5509  -50.9043  -54.8568 H         1 UNK         0.0794 
    127 H127       35.9976  -47.4538  -54.0688 H         1 UNK         0.3016 
@<TRIPOS>BOND
     1    1    2 1    
     2    1   67 1    
     3    1   68 1    
     4    1   69 1    
     5    2    3 2    
     6    2    4 am   BACKBONE|DICT|INTERRES
     7    4    5 1    
     8    4   70 1    
     9    5    6 1    
    10    5   65 1    
    11    5   71 1    
    12    6    7 1    
    13    6   72 1    
    14    6   73 1    
    15    7    8 1    
    16    8    9 1    
    17    8   74 1    
    18    8   75 1    
    19    9   10 ar   
    20    9   14 ar   
    21   10   11 ar   
    22   10   76 1    
    23   11   12 ar   
    24   11   48 1    
    25   12   13 ar   
    26   12   77 1    
    27   13   14 ar   
    28   13   15 1    
    29   14   78 1    
    30   15   16 1    
    31   15   79 1    
    32   15   80 1    
    33   16   17 1    
    34   17   18 1    
    35   17   81 1    
    36   17   82 1    
    37   18   19 1    
    38   18   22 1    
    39   18   83 1    
    40   19   20 am   BACKBONE|DICT|INTERRES
    41   19   21 2    
    42   20   84 1    
    43   20   85 1    
    44   22   23 am   BACKBONE|DICT|INTERRES
    45   22   86 1    
    46   23   24 2    
    47   23   25 1    
    48   25   26 1    
    49   25   27 1    
    50   25   87 1    
    51   26   88 1    
    52   26   89 1    
    53   26   90 1    
    54   27   28 am   BACKBONE|DICT|INTERRES
    55   27   91 1    
    56   28   29 2    
    57   28   30 1    
    58   30   31 1    
    59   30   32 1    
    60   30   92 1    
    61   31   93 1    
    62   31   94 1    
    63   31   95 1    
    64   32   33 am   BACKBONE|DICT|INTERRES
    65   32   96 1    
    66   33   34 2    
    67   33   35 1    
    68   35   36 1    
    69   35   37 1    
    70   35   97 1    
    71   36   98 1    
    72   36   99 1    
    73   36  100 1    
    74   37   38 am   BACKBONE|DICT|INTERRES
    75   37  101 1    
    76   38   39 2    
    77   38   40 1    
    78   40   41 1    
    79   40   42 1    
    80   40  102 1    
    81   41  103 1    
    82   41  104 1    
    83   41  105 1    
    84   42   43 am   BACKBONE|DICT|INTERRES
    85   42  106 1    
    86   43   44 2    
    87   43   45 1    
    88   45   46 1    
    89   45   49 1    
    90   45  107 1    
    91   46   47 1    
    92   46  108 1    
    93   46  109 1    
    94   47   48 1    
    95   48  110 1    
    96   48  111 1    
    97   49   50 am   BACKBONE|DICT|INTERRES
    98   49  112 1    
    99   50   51 2    
   100   50   52 1    
   101   52   53 1    
   102   52   54 1    
   103   52  113 1    
   104   53  114 1    
   105   53  115 1    
   106   53  116 1    
   107   54   55 am   BACKBONE|DICT|INTERRES
   108   54  117 1    
   109   55   56 2    
   110   55   57 1    
   111   57   58 1    
   112   57   59 1    
   113   57  118 1    
   114   58  119 1    
   115   58  120 1    
   116   58  121 1    
   117   59   60 am   BACKBONE|DICT|INTERRES
   118   59  122 1    
   119   60   61 2    
   120   60   62 1    
   121   62   63 1    
   122   62   64 1    
   123   62  123 1    
   124   63  124 1    
   125   63  125 1    
   126   63  126 1    
   127   64   65 am   BACKBONE|DICT|INTERRES
   128   64  127 1    
   129   65   66 2    
@<TRIPOS>SUBSTRUCTURE
     1 UNK         1 GROUP             0       ****    0 ROOT    
