@<TRIPOS>MOLECULE
3R134
127   129    1
SMALL
USER_CHARGES


@<TRIPOS>ATOM
      1 CA         39.2215  -44.3411  -55.3950 C.3       0 UNK        -0.1968 
      2 C          37.8988  -45.0675  -55.2016 C.2       0 UNK         0.4852 
      3 O          37.4873  -45.8344  -56.0748 O.2       0 UNK        -0.5359 
      4 N          37.2304  -44.8432  -54.0620 N.am      1 UNK        -0.4300 
      5 CA         35.9526  -45.4595  -53.6878 C.3       1 UNK         0.0863 
      6 C6         35.1738  -44.5615  -52.6895 C.3       11 UNK        -0.0953 
      7 S7         33.3897  -44.9407  -52.6767 S.3       11 UNK        -0.2369 
      8 C8         32.6664  -43.3535  -53.1913 C.3       11 UNK         0.0226 
      9 C9         31.1574  -43.4718  -53.3396 C.ar      11 UNK        -0.0699 
     10 C10        30.3478  -43.5699  -52.2047 C.ar      11 UNK        -0.0804 
     11 C11        28.9635  -43.7173  -52.3298 C.ar      11 UNK        -0.0871 
     12 C12        28.3844  -43.7408  -53.6023 C.ar      11 UNK        -0.1008 
     13 C13        29.1851  -43.6449  -54.7440 C.ar      11 UNK        -0.0735 
     14 C14        30.5701  -43.5070  -54.6073 C.ar      11 UNK        -0.0945 
     15 C15        28.5644  -43.7459  -56.1265 C.3       11 UNK         0.0169 
     16 S16        27.7357  -42.2060  -56.6279 S.3       11 UNK        -0.2669 
     17 C17        27.7652  -42.3783  -58.4477 C.3       11 UNK        -0.0850 
     18 CA         26.5207  -43.0862  -59.0476 C.3       10 UNK         0.0855 
     19 C          26.6274  -43.1154  -60.6015 C.2       10 UNK         0.5543 
     20 N          26.9187  -44.2527  -61.2246 N.am      10 UNK        -0.7343 
     21 O          26.4456  -42.0864  -61.2474 O.2       10 UNK        -0.5027 
     22 N          26.2976  -44.4089  -58.4449 N.am      10 UNK        -0.4495 
     23 C          25.1926  -45.1496  -58.5888 C.2       10 UNK         0.4903 
     24 O          24.1657  -44.7368  -59.1301 O.2       10 UNK        -0.4860 
     25 CA         25.2310  -46.5912  -58.0380 C.3       9 UNK         0.0227 
     26 CB         24.5113  -47.5827  -58.9753 C.3       9 UNK        -0.1964 
     27 N          26.5673  -47.1027  -57.6943 N.am      9 UNK        -0.4231 
     28 C          27.6280  -47.2620  -58.5034 C.2       9 UNK         0.5014 
     29 O          27.6664  -46.8744  -59.6726 O.2       9 UNK        -0.5270 
     30 CA         28.8555  -47.9692  -57.9011 C.3       8 UNK         0.0284 
     31 CB         29.7073  -46.9971  -57.0710 C.3       8 UNK        -0.1977 
     32 N          28.4882  -49.1168  -57.0711 N.am      8 UNK        -0.4342 
     33 C          27.9751  -50.2630  -57.5402 C.2       8 UNK         0.5039 
     34 O          27.8200  -50.5118  -58.7363 O.2       8 UNK        -0.5547 
     35 CA         27.5441  -51.2997  -56.4929 C.3       7 UNK         0.0281 
     36 CB         28.7544  -52.0824  -55.9562 C.3       7 UNK        -0.1963 
     37 N          26.8248  -50.6657  -55.3865 N.am      7 UNK        -0.4444 
     38 C          25.5385  -50.2921  -55.4424 C.2       7 UNK         0.5104 
     39 O          24.8047  -50.5071  -56.4070 O.2       7 UNK        -0.5100 
     40 CA         24.9617  -49.5607  -54.2168 C.3       6 UNK         0.0396 
     41 CB         24.2041  -50.5475  -53.3144 C.3       6 UNK        -0.1801 
     42 N          25.9716  -48.8596  -53.4195 N.am      6 UNK        -0.4747 
     43 C          26.5933  -47.7330  -53.7969 C.2       6 UNK         0.5012 
     44 O          26.3987  -47.1675  -54.8724 O.2       6 UNK        -0.5003 
     45 CA         27.6496  -47.1760  -52.8230 C.3       5 UNK         0.0782 
     46 C46        26.9481  -46.3919  -51.6847 C.3       11 UNK        -0.0868 
     47 S47        28.1051  -45.6088  -50.5118 S.3       11 UNK        -0.2515 
     48 C48        28.1066  -43.8793  -51.0849 C.3       11 UNK         0.0199 
     49 N          28.5659  -48.2115  -52.3230 N.am      5 UNK        -0.4607 
     50 C          29.3002  -49.0253  -53.0932 C.2       4 UNK         0.5031 
     51 O          29.2208  -49.0603  -54.3242 O.2       4 UNK        -0.5119 
     52 CA         30.2293  -50.0113  -52.3663 C.3       4 UNK         0.0263 
     53 CB         29.4393  -51.2529  -51.9200 C.3       4 UNK        -0.1967 
     54 N          31.3297  -50.4354  -53.2353 N.am      4 UNK        -0.4237 
     55 C          32.3507  -49.6487  -53.5975 C.2       3 UNK         0.4908 
     56 O          32.5525  -48.5247  -53.1331 O.2       3 UNK        -0.5102 
     57 CA         33.2651  -50.1979  -54.7030 C.3       3 UNK         0.0241 
     58 CB         32.6678  -49.8914  -56.0876 C.3       3 UNK        -0.1971 
     59 N          34.5981  -49.6017  -54.6225 N.am      3 UNK        -0.4139 
     60 C          35.5845  -50.0339  -53.8268 C.2       2 UNK         0.5016 
     61 O          35.5091  -51.0432  -53.1242 O.2       2 UNK        -0.5319 
     62 CA         36.8803  -49.2039  -53.8191 C.3       2 UNK         0.0286 
     63 CB         37.8777  -49.7496  -54.8539 C.3       2 UNK        -0.1963 
     64 N          36.6432  -47.7816  -54.0835 N.am      2 UNK        -0.4790 
     65 C          36.1690  -46.9080  -53.1852 C.2       1 UNK         0.5024 
     66 O          35.9502  -47.2045  -52.0092 O.2       1 UNK        -0.4888 
     67 H67        39.1823  -43.7245  -56.2925 H         1 UNK         0.0892 
     68 H68        39.4601  -43.6952  -54.5502 H         1 UNK         0.0892 
     69 H69        40.0309  -45.0612  -55.5109 H         1 UNK         0.0892 
     70 H70        37.6360  -44.2313  -53.3679 H         1 UNK         0.3107 
     71 H71        35.3491  -45.5300  -54.5961 H         1 UNK         0.0773 
     72 H72        35.5687  -44.6453  -51.6754 H         1 UNK         0.0680 
     73 H73        35.2958  -43.5125  -52.9640 H         1 UNK         0.0680 
     74 H74        33.1216  -43.0360  -54.1308 H         1 UNK         0.0650 
     75 H75        32.9046  -42.5879  -52.4515 H         1 UNK         0.0650 
     76 H76        30.8013  -43.5615  -51.2227 H         1 UNK         0.1397 
     77 H77        27.3145  -43.8590  -53.7086 H         1 UNK         0.1363 
     78 H78        31.1938  -43.4443  -55.4886 H         1 UNK         0.1355 
     79 H79        29.3343  -44.0015  -56.8546 H         1 UNK         0.0707 
     80 H80        27.8416  -44.5624  -56.1341 H         1 UNK         0.0707 
     81 H81        27.8457  -41.3697  -58.8584 H         1 UNK         0.1034 
     82 H82        28.6818  -42.8866  -58.7530 H         1 UNK         0.1034 
     83 H83        25.6475  -42.4761  -58.8085 H         1 UNK         0.0482 
     84 H84        26.9848  -44.2627  -62.2299 H         1 UNK         0.3460 
     85 H85        27.0857  -45.1028  -60.6983 H         1 UNK         0.3460 
     86 H86        27.0944  -44.8368  -58.0028 H         1 UNK         0.2989 
     87 H87        24.6760  -46.5649  -57.0992 H         1 UNK         0.0559 
     88 H88        23.4691  -47.2992  -59.1267 H         1 UNK         0.0848 
     89 H89        24.5126  -48.5910  -58.5605 H         1 UNK         0.0848 
     90 H90        24.9837  -47.6242  -59.9573 H         1 UNK         0.0848 
     91 H91        26.6668  -47.3695  -56.7167 H         1 UNK         0.3144 
     92 H92        29.4670  -48.3333  -58.7295 H         1 UNK         0.0727 
     93 H93        29.1689  -46.6314  -56.1961 H         1 UNK         0.0790 
     94 H94        30.0106  -46.1366  -57.6678 H         1 UNK         0.0790 
     95 H95        30.6179  -47.4778  -56.7147 H         1 UNK         0.0790 
     96 H96        28.6428  -49.0284  -56.0676 H         1 UNK         0.3215 
     97 H97        26.8760  -52.0122  -56.9825 H         1 UNK         0.0863 
     98 H98        28.4471  -52.8465  -55.2422 H         1 UNK         0.0808 
     99 H99        29.4768  -51.4329  -55.4634 H         1 UNK         0.0808 
    100 H100       29.2772  -52.5900  -56.7679 H         1 UNK         0.0808 
    101 H101       27.3701  -50.3941  -54.5806 H         1 UNK         0.3118 
    102 H102       24.2472  -48.8211  -54.5851 H         1 UNK         0.0546 
    103 H103       24.8664  -51.3089  -52.9005 H         1 UNK         0.0828 
    104 H104       23.4226  -51.0653  -53.8726 H         1 UNK         0.0828 
    105 H105       23.7189  -50.0349  -52.4837 H         1 UNK         0.0828 
    106 H106       26.2074  -49.2616  -52.5232 H         1 UNK         0.3005 
    107 H107       28.2630  -46.4785  -53.3962 H         1 UNK         0.1257 
    108 H108       26.3031  -47.0572  -51.1073 H         1 UNK         0.0775 
    109 H109       26.2885  -45.6258  -52.0967 H         1 UNK         0.0775 
    110 H110       27.0858  -43.5385  -51.2647 H         1 UNK         0.0840 
    111 H111       28.4985  -43.2459  -50.2876 H         1 UNK         0.0840 
    112 H112       28.6850  -48.2432  -51.3205 H         1 UNK         0.2987 
    113 H113       30.6483  -49.5176  -51.4867 H         1 UNK         0.0785 
    114 H114       28.6305  -50.9817  -51.2402 H         1 UNK         0.0798 
    115 H115       30.0787  -51.9594  -51.3903 H         1 UNK         0.0798 
    116 H116       28.9918  -51.7760  -52.7661 H         1 UNK         0.0798 
    117 H117       31.2243  -51.3311  -53.6877 H         1 UNK         0.3079 
    118 H118       33.3473  -51.2811  -54.5881 H         1 UNK         0.0794 
    119 H119       33.2739  -50.3222  -56.8848 H         1 UNK         0.0786 
    120 H120       32.5956  -48.8179  -56.2647 H         1 UNK         0.0786 
    121 H121       31.6627  -50.3039  -56.1866 H         1 UNK         0.0786 
    122 H122       34.7360  -48.7330  -55.1166 H         1 UNK         0.3032 
    123 H123       37.3279  -49.3060  -52.8275 H         1 UNK         0.1094 
    124 H124       37.4925  -49.6662  -55.8710 H         1 UNK         0.0794 
    125 H125       38.8268  -49.2150  -54.8096 H         1 UNK         0.0794 
    126 H126       38.0917  -50.8037  -54.6711 H         1 UNK         0.0794 
    127 H127       36.8727  -47.4266  -55.0078 H         1 UNK         0.3016 
@<TRIPOS>BOND
     1    1    2 1    
     2    1   67 1    
     3    1   68 1    
     4    1   69 1    
     5    2    3 2    
     6    2    4 am   BACKBONE|DICT|INTERRES
     7    4    5 1    
     8    4   70 1    
     9    5    6 1    
    10    5   65 1    
    11    5   71 1    
    12    6    7 1    
    13    6   72 1    
    14    6   73 1    
    15    7    8 1    
    16    8    9 1    
    17    8   74 1    
    18    8   75 1    
    19    9   10 ar   
    20    9   14 ar   
    21   10   11 ar   
    22   10   76 1    
    23   11   12 ar   
    24   11   48 1    
    25   12   13 ar   
    26   12   77 1    
    27   13   14 ar   
    28   13   15 1    
    29   14   78 1    
    30   15   16 1    
    31   15   79 1    
    32   15   80 1    
    33   16   17 1    
    34   17   18 1    
    35   17   81 1    
    36   17   82 1    
    37   18   19 1    
    38   18   22 1    
    39   18   83 1    
    40   19   20 am   BACKBONE|DICT|INTERRES
    41   19   21 2    
    42   20   84 1    
    43   20   85 1    
    44   22   23 am   BACKBONE|DICT|INTERRES
    45   22   86 1    
    46   23   24 2    
    47   23   25 1    
    48   25   26 1    
    49   25   27 1    
    50   25   87 1    
    51   26   88 1    
    52   26   89 1    
    53   26   90 1    
    54   27   28 am   BACKBONE|DICT|INTERRES
    55   27   91 1    
    56   28   29 2    
    57   28   30 1    
    58   30   31 1    
    59   30   32 1    
    60   30   92 1    
    61   31   93 1    
    62   31   94 1    
    63   31   95 1    
    64   32   33 am   BACKBONE|DICT|INTERRES
    65   32   96 1    
    66   33   34 2    
    67   33   35 1    
    68   35   36 1    
    69   35   37 1    
    70   35   97 1    
    71   36   98 1    
    72   36   99 1    
    73   36  100 1    
    74   37   38 am   BACKBONE|DICT|INTERRES
    75   37  101 1    
    76   38   39 2    
    77   38   40 1    
    78   40   41 1    
    79   40   42 1    
    80   40  102 1    
    81   41  103 1    
    82   41  104 1    
    83   41  105 1    
    84   42   43 am   BACKBONE|DICT|INTERRES
    85   42  106 1    
    86   43   44 2    
    87   43   45 1    
    88   45   46 1    
    89   45   49 1    
    90   45  107 1    
    91   46   47 1    
    92   46  108 1    
    93   46  109 1    
    94   47   48 1    
    95   48  110 1    
    96   48  111 1    
    97   49   50 am   BACKBONE|DICT|INTERRES
    98   49  112 1    
    99   50   51 2    
   100   50   52 1    
   101   52   53 1    
   102   52   54 1    
   103   52  113 1    
   104   53  114 1    
   105   53  115 1    
   106   53  116 1    
   107   54   55 am   BACKBONE|DICT|INTERRES
   108   54  117 1    
   109   55   56 2    
   110   55   57 1    
   111   57   58 1    
   112   57   59 1    
   113   57  118 1    
   114   58  119 1    
   115   58  120 1    
   116   58  121 1    
   117   59   60 am   BACKBONE|DICT|INTERRES
   118   59  122 1    
   119   60   61 2    
   120   60   62 1    
   121   62   63 1    
   122   62   64 1    
   123   62  123 1    
   124   63  124 1    
   125   63  125 1    
   126   63  126 1    
   127   64   65 am   BACKBONE|DICT|INTERRES
   128   64  127 1    
   129   65   66 2    
@<TRIPOS>SUBSTRUCTURE
     1 UNK         1 GROUP             0       ****    0 ROOT    
