@<TRIPOS>MOLECULE
3R134
127   129    1
SMALL
USER_CHARGES


@<TRIPOS>ATOM
      1 CA         29.8139  -45.5742  -49.6899 C.3       0 UNK        -0.1968 
      2 C          31.2991  -45.2818  -49.8479 C.2       0 UNK         0.4852 
      3 O          32.0765  -45.5569  -48.9330 O.2       0 UNK        -0.5359 
      4 N          31.6933  -44.7253  -51.0015 N.am      1 UNK        -0.4300 
      5 CA         33.0814  -44.4252  -51.3747 C.3       1 UNK         0.0863 
      6 C6         33.1099  -43.5606  -52.6576 C.3       11 UNK        -0.0953 
      7 S7         34.7530  -42.8959  -53.0995 S.3       11 UNK        -0.2369 
      8 C8         34.3271  -41.6736  -54.3879 C.3       11 UNK         0.0226 
      9 C9         33.3301  -42.2263  -55.3976 C.ar      11 UNK        -0.0699 
     10 C10        33.7075  -43.2437  -56.2793 C.ar      11 UNK        -0.0804 
     11 C11        32.7662  -43.8250  -57.1341 C.ar      11 UNK        -0.0871 
     12 C12        31.4493  -43.3539  -57.1298 C.ar      11 UNK        -0.1008 
     13 C13        31.0619  -42.3354  -56.2553 C.ar      11 UNK        -0.0735 
     14 C14        32.0091  -41.7673  -55.3996 C.ar      11 UNK        -0.0945 
     15 C15        29.6124  -41.8800  -56.1999 C.3       11 UNK         0.0169 
     16 S16        28.7524  -42.6597  -54.7984 S.3       11 UNK        -0.2669 
     17 C17        27.0374  -42.0873  -55.0551 C.3       11 UNK        -0.0850 
     18 CA         26.0831  -43.2580  -55.4059 C.3       10 UNK         0.0855 
     19 C          24.6081  -42.7821  -55.4299 C.2       10 UNK         0.5543 
     20 N          23.9152  -42.8537  -54.3021 N.am      10 UNK        -0.7343 
     21 O          24.1000  -42.3130  -56.4471 O.2       10 UNK        -0.5027 
     22 N          26.4507  -43.8839  -56.6827 N.am      10 UNK        -0.4495 
     23 C          26.3957  -45.1947  -56.9362 C.2       10 UNK         0.4903 
     24 O          26.0506  -46.0411  -56.1088 O.2       10 UNK        -0.4860 
     25 CA         26.8164  -45.6149  -58.3553 C.3       9 UNK         0.0227 
     26 CB         28.2594  -45.1685  -58.6610 C.3       9 UNK        -0.1964 
     27 N          26.7470  -47.0670  -58.5114 N.am      9 UNK        -0.4231 
     28 C          25.7146  -47.7489  -59.0190 C.2       9 UNK         0.5014 
     29 O          24.6872  -47.2159  -59.4419 O.2       9 UNK        -0.5270 
     30 CA         25.8432  -49.2785  -59.0976 C.3       8 UNK         0.0284 
     31 CB         26.5779  -49.6971  -60.3835 C.3       8 UNK        -0.1977 
     32 N          26.5114  -49.8726  -57.9331 N.am      8 UNK        -0.4342 
     33 C          26.1508  -51.0388  -57.3750 C.2       8 UNK         0.5039 
     34 O          25.2038  -51.7187  -57.7753 O.2       8 UNK        -0.5547 
     35 CA         26.9752  -51.5703  -56.1832 C.3       7 UNK         0.0281 
     36 CB         27.9314  -52.6798  -56.6519 C.3       7 UNK        -0.1963 
     37 N          27.7504  -50.5499  -55.4784 N.am      7 UNK        -0.4444 
     38 C          27.2390  -49.5138  -54.8019 C.2       7 UNK         0.5104 
     39 O          26.0353  -49.3661  -54.5900 O.2       7 UNK        -0.5100 
     40 CA         28.2312  -48.4480  -54.2979 C.3       6 UNK         0.0396 
     41 CB         28.4724  -48.6113  -52.7890 C.3       6 UNK        -0.1801 
     42 N          29.5280  -48.4205  -54.9887 N.am      6 UNK        -0.4747 
     43 C          29.7227  -48.2386  -56.3043 C.2       6 UNK         0.5012 
     44 O          28.8142  -48.1903  -57.1327 O.2       6 UNK        -0.5003 
     45 CA         31.1797  -48.1371  -56.7809 C.3       5 UNK         0.0782 
     46 C46        31.8236  -46.8155  -56.3015 C.3       11 UNK        -0.0868 
     47 S47        33.4544  -46.5161  -57.0637 S.3       11 UNK        -0.2515 
     48 C48        33.1600  -44.9940  -58.0274 C.3       11 UNK         0.0199 
     49 N          31.9199  -49.3206  -56.3465 N.am      5 UNK        -0.4607 
     50 C          31.8314  -50.5216  -56.9334 C.2       4 UNK         0.5031 
     51 O          31.1946  -50.7357  -57.9647 O.2       4 UNK        -0.5119 
     52 CA         32.5607  -51.6886  -56.2457 C.3       4 UNK         0.0263 
     53 CB         33.9866  -51.8324  -56.8014 C.3       4 UNK        -0.1967 
     54 N          32.6185  -51.5522  -54.7879 N.am      4 UNK        -0.4237 
     55 C          31.5527  -51.5871  -53.9742 C.2       3 UNK         0.4908 
     56 O          30.3992  -51.7802  -54.3578 O.2       3 UNK        -0.5102 
     57 CA         31.8194  -51.3149  -52.4838 C.3       3 UNK         0.0241 
     58 CB         32.2167  -52.6110  -51.7593 C.3       3 UNK        -0.1971 
     59 N          32.8411  -50.2853  -52.2536 N.am      3 UNK        -0.4139 
     60 C          32.7223  -49.0080  -52.6389 C.2       2 UNK         0.5016 
     61 O          31.7498  -48.5632  -53.2550 O.2       2 UNK        -0.5319 
     62 CA         33.8921  -48.0725  -52.3290 C.3       2 UNK         0.0286 
     63 CB         34.9182  -48.0849  -53.4770 C.3       2 UNK        -0.1963 
     64 N          33.3404  -46.7338  -52.1595 N.am      2 UNK        -0.4790 
     65 C          33.9233  -45.7136  -51.5203 C.2       1 UNK         0.5024 
     66 O          35.0513  -45.7708  -51.0275 O.2       1 UNK        -0.4888 
     67 H67        29.4175  -45.0468  -48.8226 H         1 UNK         0.0892 
     68 H68        29.2407  -45.2666  -50.5645 H         1 UNK         0.0892 
     69 H69        29.6564  -46.6422  -49.5412 H         1 UNK         0.0892 
     70 H70        30.9985  -44.5098  -51.7022 H         1 UNK         0.3107 
     71 H71        33.5165  -43.8404  -50.5612 H         1 UNK         0.0773 
     72 H72        32.4375  -42.7095  -52.5362 H         1 UNK         0.0680 
     73 H73        32.7252  -44.1330  -53.5043 H         1 UNK         0.0680 
     74 H74        35.2378  -41.3669  -54.9040 H         1 UNK         0.0650 
     75 H75        33.9305  -40.7792  -53.9052 H         1 UNK         0.0650 
     76 H76        34.7217  -43.6193  -56.2622 H         1 UNK         0.1397 
     77 H77        30.7161  -43.8043  -57.7833 H         1 UNK         0.1363 
     78 H78        31.7042  -40.9961  -54.7053 H         1 UNK         0.1355 
     79 H79        29.0985  -42.1303  -57.1291 H         1 UNK         0.0707 
     80 H80        29.5667  -40.7945  -56.0990 H         1 UNK         0.0707 
     81 H81        26.7167  -41.6004  -54.1320 H         1 UNK         0.1034 
     82 H82        27.0069  -41.3152  -55.8263 H         1 UNK         0.1034 
     83 H83        26.1755  -44.0002  -54.6097 H         1 UNK         0.0482 
     84 H84        22.9586  -42.5351  -54.2934 H         1 UNK         0.3460 
     85 H85        24.3250  -43.2286  -53.4606 H         1 UNK         0.3460 
     86 H86        26.6833  -43.2489  -57.4311 H         1 UNK         0.2989 
     87 H87        26.1445  -45.1321  -59.0678 H         1 UNK         0.0559 
     88 H88        28.3423  -44.0822  -58.6966 H         1 UNK         0.0848 
     89 H89        28.5942  -45.5432  -59.6285 H         1 UNK         0.0848 
     90 H90        28.9589  -45.5263  -57.9049 H         1 UNK         0.0848 
     91 H91        27.5343  -47.5727  -58.1089 H         1 UNK         0.3144 
     92 H92        24.8209  -49.6585  -59.1574 H         1 UNK         0.0727 
     93 H93        27.6203  -49.3762  -60.3735 H         1 UNK         0.0790 
     94 H94        26.1075  -49.2585  -61.2647 H         1 UNK         0.0790 
     95 H95        26.5620  -50.7794  -60.5135 H         1 UNK         0.0790 
     96 H96        27.2969  -49.3658  -57.5355 H         1 UNK         0.3215 
     97 H97        26.2703  -52.0021  -55.4698 H         1 UNK         0.0863 
     98 H98        28.4455  -53.1427  -55.8093 H         1 UNK         0.0808 
     99 H99        28.6889  -52.2954  -57.3366 H         1 UNK         0.0808 
    100 H100       27.3901  -53.4707  -57.1729 H         1 UNK         0.0808 
    101 H101       28.7587  -50.6281  -55.5257 H         1 UNK         0.3118 
    102 H102       27.7637  -47.4755  -54.4625 H         1 UNK         0.0546 
    103 H103       28.9611  -49.5594  -52.5641 H         1 UNK         0.0828 
    104 H104       27.5323  -48.5880  -52.2363 H         1 UNK         0.0828 
    105 H105       29.0985  -47.8098  -52.3966 H         1 UNK         0.0828 
    106 H106       30.3484  -48.4857  -54.3861 H         1 UNK         0.3005 
    107 H107       31.1578  -48.1220  -57.8735 H         1 UNK         0.1257 
    108 H108       31.1606  -45.9798  -56.5236 H         1 UNK         0.0775 
    109 H109       31.9527  -46.8083  -55.2184 H         1 UNK         0.0775 
    110 H110       34.0684  -44.7397  -58.5753 H         1 UNK         0.0840 
    111 H111       32.3932  -45.1875  -58.7793 H         1 UNK         0.0840 
    112 H112       32.4331  -49.2339  -55.4819 H         1 UNK         0.2987 
    113 H113       32.0075  -52.6022  -56.4751 H         1 UNK         0.0785 
    114 H114       33.9710  -51.9610  -57.8847 H         1 UNK         0.0798 
    115 H115       34.4911  -52.7028  -56.3814 H         1 UNK         0.0798 
    116 H116       34.5956  -50.9531  -56.5870 H         1 UNK         0.0798 
    117 H117       33.5281  -51.3961  -54.3793 H         1 UNK         0.3079 
    118 H118       30.8857  -50.9560  -52.0463 H         1 UNK         0.0794 
    119 H119       32.3133  -52.4517  -50.6852 H         1 UNK         0.0786 
    120 H120       33.1634  -53.0087  -52.1271 H         1 UNK         0.0786 
    121 H121       31.4607  -53.3846  -51.9026 H         1 UNK         0.0786 
    122 H122       33.6728  -50.5738  -51.7578 H         1 UNK         0.3032 
    123 H123       34.3667  -48.3876  -51.3969 H         1 UNK         0.1094 
    124 H124       34.4719  -47.7631  -54.4186 H         1 UNK         0.0794 
    125 H125       35.7591  -47.4239  -53.2664 H         1 UNK         0.0794 
    126 H126       35.3258  -49.0846  -53.6312 H         1 UNK         0.0794 
    127 H127       32.3938  -46.6369  -52.5057 H         1 UNK         0.3016 
@<TRIPOS>BOND
     1    1    2 1    
     2    1   67 1    
     3    1   68 1    
     4    1   69 1    
     5    2    3 2    
     6    2    4 am   BACKBONE|DICT|INTERRES
     7    4    5 1    
     8    4   70 1    
     9    5    6 1    
    10    5   65 1    
    11    5   71 1    
    12    6    7 1    
    13    6   72 1    
    14    6   73 1    
    15    7    8 1    
    16    8    9 1    
    17    8   74 1    
    18    8   75 1    
    19    9   10 ar   
    20    9   14 ar   
    21   10   11 ar   
    22   10   76 1    
    23   11   12 ar   
    24   11   48 1    
    25   12   13 ar   
    26   12   77 1    
    27   13   14 ar   
    28   13   15 1    
    29   14   78 1    
    30   15   16 1    
    31   15   79 1    
    32   15   80 1    
    33   16   17 1    
    34   17   18 1    
    35   17   81 1    
    36   17   82 1    
    37   18   19 1    
    38   18   22 1    
    39   18   83 1    
    40   19   20 am   BACKBONE|DICT|INTERRES
    41   19   21 2    
    42   20   84 1    
    43   20   85 1    
    44   22   23 am   BACKBONE|DICT|INTERRES
    45   22   86 1    
    46   23   24 2    
    47   23   25 1    
    48   25   26 1    
    49   25   27 1    
    50   25   87 1    
    51   26   88 1    
    52   26   89 1    
    53   26   90 1    
    54   27   28 am   BACKBONE|DICT|INTERRES
    55   27   91 1    
    56   28   29 2    
    57   28   30 1    
    58   30   31 1    
    59   30   32 1    
    60   30   92 1    
    61   31   93 1    
    62   31   94 1    
    63   31   95 1    
    64   32   33 am   BACKBONE|DICT|INTERRES
    65   32   96 1    
    66   33   34 2    
    67   33   35 1    
    68   35   36 1    
    69   35   37 1    
    70   35   97 1    
    71   36   98 1    
    72   36   99 1    
    73   36  100 1    
    74   37   38 am   BACKBONE|DICT|INTERRES
    75   37  101 1    
    76   38   39 2    
    77   38   40 1    
    78   40   41 1    
    79   40   42 1    
    80   40  102 1    
    81   41  103 1    
    82   41  104 1    
    83   41  105 1    
    84   42   43 am   BACKBONE|DICT|INTERRES
    85   42  106 1    
    86   43   44 2    
    87   43   45 1    
    88   45   46 1    
    89   45   49 1    
    90   45  107 1    
    91   46   47 1    
    92   46  108 1    
    93   46  109 1    
    94   47   48 1    
    95   48  110 1    
    96   48  111 1    
    97   49   50 am   BACKBONE|DICT|INTERRES
    98   49  112 1    
    99   50   51 2    
   100   50   52 1    
   101   52   53 1    
   102   52   54 1    
   103   52  113 1    
   104   53  114 1    
   105   53  115 1    
   106   53  116 1    
   107   54   55 am   BACKBONE|DICT|INTERRES
   108   54  117 1    
   109   55   56 2    
   110   55   57 1    
   111   57   58 1    
   112   57   59 1    
   113   57  118 1    
   114   58  119 1    
   115   58  120 1    
   116   58  121 1    
   117   59   60 am   BACKBONE|DICT|INTERRES
   118   59  122 1    
   119   60   61 2    
   120   60   62 1    
   121   62   63 1    
   122   62   64 1    
   123   62  123 1    
   124   63  124 1    
   125   63  125 1    
   126   63  126 1    
   127   64   65 am   BACKBONE|DICT|INTERRES
   128   64  127 1    
   129   65   66 2    
@<TRIPOS>SUBSTRUCTURE
     1 UNK         1 GROUP             0       ****    0 ROOT    
