@<TRIPOS>MOLECULE
3R134
127   129    1
SMALL
USER_CHARGES


@<TRIPOS>ATOM
      1 CA         29.2856  -44.3106  -50.9737 C.3       0 UNK        -0.1968 
      2 C          30.7503  -44.3682  -50.5645 C.2       0 UNK         0.4852 
      3 O          31.3116  -43.3521  -50.1523 O.2       0 UNK        -0.5359 
      4 N          31.3697  -45.5458  -50.6788 N.am      1 UNK        -0.4300 
      5 CA         32.7733  -45.8142  -50.3738 C.3       1 UNK         0.0863 
      6 C6         33.7607  -45.2032  -51.4093 C.3       11 UNK        -0.0953 
      7 S7         33.4025  -45.6588  -53.1431 S.3       11 UNK        -0.2369 
      8 C8         32.8811  -44.0522  -53.8163 C.3       11 UNK         0.0226 
      9 C9         32.1698  -44.2212  -55.1481 C.ar      11 UNK        -0.0699 
     10 C10        32.8999  -44.5159  -56.3026 C.ar      11 UNK        -0.0804 
     11 C11        32.2493  -44.6935  -57.5274 C.ar      11 UNK        -0.0871 
     12 C12        30.8597  -44.5587  -57.5922 C.ar      11 UNK        -0.1008 
     13 C13        30.1189  -44.2550  -56.4457 C.ar      11 UNK        -0.0735 
     14 C14        30.7806  -44.0879  -55.2256 C.ar      11 UNK        -0.0945 
     15 C15        28.6027  -44.1527  -56.5143 C.3       11 UNK         0.0169 
     16 S16        28.0558  -42.8824  -57.7048 S.3       11 UNK        -0.2669 
     17 C17        26.8290  -41.9352  -56.7328 C.3       11 UNK        -0.0850 
     18 CA         25.3721  -42.4468  -56.8892 C.3       10 UNK         0.0855 
     19 C          24.7615  -42.1078  -58.2827 C.2       10 UNK         0.5543 
     20 N          24.3079  -43.0736  -59.0742 N.am      10 UNK        -0.7343 
     21 O          24.6826  -40.9365  -58.6451 O.2       10 UNK        -0.5027 
     22 N          25.2672  -43.8573  -56.4966 N.am      10 UNK        -0.4495 
     23 C          24.1604  -44.4650  -56.0591 C.2       10 UNK         0.4903 
     24 O          23.1008  -43.8789  -55.8322 O.2       10 UNK        -0.4860 
     25 CA         24.2684  -45.9875  -55.8397 C.3       9 UNK         0.0227 
     26 CB         22.8950  -46.6899  -55.8798 C.3       9 UNK        -0.1964 
     27 N          25.2128  -46.6593  -56.7462 N.am      9 UNK        -0.4231 
     28 C          25.1694  -46.6884  -58.0910 C.2       9 UNK         0.5014 
     29 O          24.3648  -46.0368  -58.7585 O.2       9 UNK        -0.5270 
     30 CA         26.1911  -47.5778  -58.8322 C.3       8 UNK         0.0284 
     31 CB         27.2343  -46.7155  -59.5628 C.3       8 UNK        -0.1977 
     32 N          26.8783  -48.5408  -57.9662 N.am      8 UNK        -0.4342 
     33 C          26.2847  -49.5850  -57.3646 C.2       8 UNK         0.5039 
     34 O          25.1263  -49.9317  -57.5982 O.2       8 UNK        -0.5547 
     35 CA         27.0849  -50.3510  -56.2911 C.3       7 UNK         0.0281 
     36 CB         27.5135  -51.7275  -56.8232 C.3       7 UNK        -0.1963 
     37 N          28.2611  -49.6321  -55.7876 N.am      7 UNK        -0.4444 
     38 C          28.2340  -48.4489  -55.1516 C.2       7 UNK         0.5104 
     39 O          27.1918  -47.8586  -54.8634 O.2       7 UNK        -0.5100 
     40 CA         29.5825  -47.7662  -54.8506 C.3       6 UNK         0.0396 
     41 CB         29.9391  -47.9051  -53.3645 C.3       6 UNK        -0.1801 
     42 N          30.7019  -48.2422  -55.6716 N.am      6 UNK        -0.4747 
     43 C          30.7607  -48.1691  -57.0131 C.2       6 UNK         0.5012 
     44 O          29.8502  -47.7040  -57.7014 O.2       6 UNK        -0.5003 
     45 CA         31.9869  -48.8088  -57.7086 C.3       5 UNK         0.0782 
     46 C46        33.0947  -47.7767  -58.0363 C.3       11 UNK        -0.0868 
     47 S47        32.6584  -46.6889  -59.4357 S.3       11 UNK        -0.2515 
     48 C48        33.0483  -45.0332  -58.7783 C.3       11 UNK         0.0199 
     49 N          32.5433  -49.9401  -56.9582 N.am      5 UNK        -0.4607 
     50 C          31.8864  -51.0635  -56.6382 C.2       4 UNK         0.5031 
     51 O          30.7265  -51.2935  -56.9766 O.2       4 UNK        -0.5119 
     52 CA         32.6319  -52.0884  -55.7641 C.3       4 UNK         0.0263 
     53 CB         33.2150  -53.2109  -56.6374 C.3       4 UNK        -0.1967 
     54 N          33.6992  -51.5146  -54.9333 N.am      4 UNK        -0.4237 
     55 C          33.5146  -50.6023  -53.9692 C.2       3 UNK         0.4908 
     56 O          32.4234  -50.0948  -53.7010 O.2       3 UNK        -0.5102 
     57 CA         34.7651  -50.1509  -53.2110 C.3       3 UNK         0.0241 
     58 CB         35.4920  -49.0284  -53.9740 C.3       3 UNK        -0.1971 
     59 N          34.3615  -49.6736  -51.8925 N.am      3 UNK        -0.4139 
     60 C          35.1110  -49.7070  -50.7863 C.2       2 UNK         0.5016 
     61 O          36.2730  -50.1189  -50.7639 O.2       2 UNK        -0.5319 
     62 CA         34.4577  -49.1665  -49.4982 C.3       2 UNK         0.0286 
     63 CB         35.3721  -49.3004  -48.2654 C.3       2 UNK        -0.1963 
     64 N          34.0730  -47.7607  -49.6500 N.am      2 UNK        -0.4790 
     65 C          32.9446  -47.3359  -50.2313 C.2       1 UNK         0.5024 
     66 O          32.0746  -48.0986  -50.6625 O.2       1 UNK        -0.4888 
     67 H67        29.1471  -43.5767  -51.7672 H         1 UNK         0.0892 
     68 H68        28.6699  -44.0153  -50.1245 H         1 UNK         0.0892 
     69 H69        28.9247  -45.2728  -51.3364 H         1 UNK         0.0892 
     70 H70        30.8705  -46.3744  -50.9789 H         1 UNK         0.3107 
     71 H71        32.9866  -45.3821  -49.3937 H         1 UNK         0.0773 
     72 H72        34.7872  -45.4994  -51.1871 H         1 UNK         0.0680 
     73 H73        33.7556  -44.1166  -51.3147 H         1 UNK         0.0680 
     74 H74        32.2266  -43.5511  -53.1018 H         1 UNK         0.0650 
     75 H75        33.7549  -43.4110  -53.9396 H         1 UNK         0.0650 
     76 H76        33.9743  -44.6224  -56.2391 H         1 UNK         0.1397 
     77 H77        30.3505  -44.7094  -58.5345 H         1 UNK         0.1363 
     78 H78        30.2141  -43.8667  -54.3316 H         1 UNK         0.1355 
     79 H79        28.1925  -43.9485  -55.5245 H         1 UNK         0.0707 
     80 H80        28.2008  -45.1217  -56.8106 H         1 UNK         0.0707 
     81 H81        26.8960  -40.8867  -57.0298 H         1 UNK         0.1034 
     82 H82        27.1125  -41.9436  -55.6796 H         1 UNK         0.1034 
     83 H83        24.7713  -41.8762  -56.1783 H         1 UNK         0.0482 
     84 H84        24.3545  -44.0489  -58.7984 H         1 UNK         0.3460 
     85 H85        23.9116  -42.8283  -59.9670 H         1 UNK         0.3460 
     86 H86        26.0769  -44.4240  -56.6940 H         1 UNK         0.2989 
     87 H87        24.6748  -46.1176  -54.8357 H         1 UNK         0.0559 
     88 H88        22.9923  -47.7611  -55.7030 H         1 UNK         0.0848 
     89 H89        22.3999  -46.5528  -56.8418 H         1 UNK         0.0848 
     90 H90        22.2284  -46.2959  -55.1117 H         1 UNK         0.0848 
     91 H91        25.9345  -47.2007  -56.2780 H         1 UNK         0.3144 
     92 H92        25.6346  -48.1423  -59.5831 H         1 UNK         0.0727 
     93 H93        27.9066  -47.3301  -60.1617 H         1 UNK         0.0790 
     94 H94        27.8444  -46.1380  -58.8692 H         1 UNK         0.0790 
     95 H95        26.7541  -46.0076  -60.2400 H         1 UNK         0.0790 
     96 H96        27.8502  -48.3396  -57.7501 H         1 UNK         0.3215 
     97 H97        26.4139  -50.5069  -55.4437 H         1 UNK         0.0863 
     98 H98        28.0515  -52.2992  -56.0668 H         1 UNK         0.0808 
     99 H99        28.1582  -51.6369  -57.6983 H         1 UNK         0.0808 
    100 H100       26.6460  -52.3186  -57.1197 H         1 UNK         0.0808 
    101 H101       29.1636  -50.0335  -56.0160 H         1 UNK         0.3118 
    102 H102       29.4556  -46.7048  -55.0655 H         1 UNK         0.0546 
    103 H103       29.1532  -47.4892  -52.7331 H         1 UNK         0.0828 
    104 H104       30.8619  -47.3756  -53.1295 H         1 UNK         0.0828 
    105 H105       30.0702  -48.9486  -53.0759 H         1 UNK         0.0828 
    106 H106       31.4576  -48.6994  -55.1746 H         1 UNK         0.3005 
    107 H107       31.6205  -49.2228  -58.6510 H         1 UNK         0.1257 
    108 H108       34.0101  -48.2940  -58.3282 H         1 UNK         0.0775 
    109 H109       33.3569  -47.1955  -57.1512 H         1 UNK         0.0775 
    110 H110       34.1205  -44.9737  -58.5847 H         1 UNK         0.0840 
    111 H111       32.8362  -44.2899  -59.5480 H         1 UNK         0.0840 
    112 H112       33.4934  -49.8400  -56.6343 H         1 UNK         0.2987 
    113 H113       31.8935  -52.5285  -55.0903 H         1 UNK         0.0785 
    114 H114       33.9826  -52.8378  -57.3166 H         1 UNK         0.0798 
    115 H115       32.4380  -53.6744  -57.2473 H         1 UNK         0.0798 
    116 H116       33.6576  -53.9996  -56.0286 H         1 UNK         0.0798 
    117 H117       34.6324  -51.8662  -55.0958 H         1 UNK         0.3079 
    118 H118       35.4303  -51.0097  -53.0970 H         1 UNK         0.0794 
    119 H119       34.8444  -48.1649  -54.1307 H         1 UNK         0.0786 
    120 H120       35.8263  -49.3695  -54.9544 H         1 UNK         0.0786 
    121 H121       36.3750  -48.6879  -53.4329 H         1 UNK         0.0786 
    122 H122       33.4030  -49.3401  -51.8343 H         1 UNK         0.3032 
    123 H123       33.5649  -49.7691  -49.3139 H         1 UNK         0.1094 
    124 H124       36.2914  -48.7241  -48.3774 H         1 UNK         0.0794 
    125 H125       34.8699  -48.9585  -47.3602 H         1 UNK         0.0794 
    126 H126       35.6569  -50.3407  -48.1015 H         1 UNK         0.0794 
    127 H127       34.7541  -47.0769  -49.3506 H         1 UNK         0.3016 
@<TRIPOS>BOND
     1    1    2 1    
     2    1   67 1    
     3    1   68 1    
     4    1   69 1    
     5    2    3 2    
     6    2    4 am   BACKBONE|DICT|INTERRES
     7    4    5 1    
     8    4   70 1    
     9    5    6 1    
    10    5   65 1    
    11    5   71 1    
    12    6    7 1    
    13    6   72 1    
    14    6   73 1    
    15    7    8 1    
    16    8    9 1    
    17    8   74 1    
    18    8   75 1    
    19    9   10 ar   
    20    9   14 ar   
    21   10   11 ar   
    22   10   76 1    
    23   11   12 ar   
    24   11   48 1    
    25   12   13 ar   
    26   12   77 1    
    27   13   14 ar   
    28   13   15 1    
    29   14   78 1    
    30   15   16 1    
    31   15   79 1    
    32   15   80 1    
    33   16   17 1    
    34   17   18 1    
    35   17   81 1    
    36   17   82 1    
    37   18   19 1    
    38   18   22 1    
    39   18   83 1    
    40   19   20 am   BACKBONE|DICT|INTERRES
    41   19   21 2    
    42   20   84 1    
    43   20   85 1    
    44   22   23 am   BACKBONE|DICT|INTERRES
    45   22   86 1    
    46   23   24 2    
    47   23   25 1    
    48   25   26 1    
    49   25   27 1    
    50   25   87 1    
    51   26   88 1    
    52   26   89 1    
    53   26   90 1    
    54   27   28 am   BACKBONE|DICT|INTERRES
    55   27   91 1    
    56   28   29 2    
    57   28   30 1    
    58   30   31 1    
    59   30   32 1    
    60   30   92 1    
    61   31   93 1    
    62   31   94 1    
    63   31   95 1    
    64   32   33 am   BACKBONE|DICT|INTERRES
    65   32   96 1    
    66   33   34 2    
    67   33   35 1    
    68   35   36 1    
    69   35   37 1    
    70   35   97 1    
    71   36   98 1    
    72   36   99 1    
    73   36  100 1    
    74   37   38 am   BACKBONE|DICT|INTERRES
    75   37  101 1    
    76   38   39 2    
    77   38   40 1    
    78   40   41 1    
    79   40   42 1    
    80   40  102 1    
    81   41  103 1    
    82   41  104 1    
    83   41  105 1    
    84   42   43 am   BACKBONE|DICT|INTERRES
    85   42  106 1    
    86   43   44 2    
    87   43   45 1    
    88   45   46 1    
    89   45   49 1    
    90   45  107 1    
    91   46   47 1    
    92   46  108 1    
    93   46  109 1    
    94   47   48 1    
    95   48  110 1    
    96   48  111 1    
    97   49   50 am   BACKBONE|DICT|INTERRES
    98   49  112 1    
    99   50   51 2    
   100   50   52 1    
   101   52   53 1    
   102   52   54 1    
   103   52  113 1    
   104   53  114 1    
   105   53  115 1    
   106   53  116 1    
   107   54   55 am   BACKBONE|DICT|INTERRES
   108   54  117 1    
   109   55   56 2    
   110   55   57 1    
   111   57   58 1    
   112   57   59 1    
   113   57  118 1    
   114   58  119 1    
   115   58  120 1    
   116   58  121 1    
   117   59   60 am   BACKBONE|DICT|INTERRES
   118   59  122 1    
   119   60   61 2    
   120   60   62 1    
   121   62   63 1    
   122   62   64 1    
   123   62  123 1    
   124   63  124 1    
   125   63  125 1    
   126   63  126 1    
   127   64   65 am   BACKBONE|DICT|INTERRES
   128   64  127 1    
   129   65   66 2    
@<TRIPOS>SUBSTRUCTURE
     1 UNK         1 GROUP             0       ****    0 ROOT    
