@<TRIPOS>MOLECULE
3R134
127   129    1
SMALL
USER_CHARGES


@<TRIPOS>ATOM
      1 CA         33.7525  -45.4137  -58.8395 C.3       0 UNK        -0.1968 
      2 C          33.3459  -45.1024  -57.4066 C.2       0 UNK         0.4852 
      3 O          32.1736  -44.8260  -57.1574 O.2       0 UNK        -0.5359 
      4 N          34.3048  -45.1507  -56.4735 N.am      1 UNK        -0.4300 
      5 CA         34.0869  -44.9310  -55.0428 C.3       1 UNK         0.0863 
      6 C6         35.1977  -44.0557  -54.4084 C.3       11 UNK        -0.0953 
      7 S7         34.9867  -42.3116  -54.8954 S.3       11 UNK        -0.2369 
      8 C8         34.1863  -41.6065  -53.4166 C.3       11 UNK         0.0226 
      9 C9         32.8291  -42.2355  -53.1198 C.ar      11 UNK        -0.0699 
     10 C10        32.7114  -43.2189  -52.1318 C.ar      11 UNK        -0.0804 
     11 C11        31.4667  -43.7785  -51.8299 C.ar      11 UNK        -0.0871 
     12 C12        30.3322  -43.3341  -52.5093 C.ar      11 UNK        -0.1008 
     13 C13        30.4345  -42.3688  -53.5164 C.ar      11 UNK        -0.0735 
     14 C14        31.6875  -41.8213  -53.8153 C.ar      11 UNK        -0.0945 
     15 C15        29.1877  -41.8873  -54.2504 C.3       11 UNK         0.0169 
     16 S16        28.1154  -43.2557  -54.8029 S.3       11 UNK        -0.2669 
     17 C17        29.0412  -43.9186  -56.2308 C.3       11 UNK        -0.0850 
     18 CA         28.0782  -44.2474  -57.4021 C.3       10 UNK         0.0855 
     19 C          28.8205  -44.4429  -58.7567 C.2       10 UNK         0.5543 
     20 N          28.5035  -45.4538  -59.5574 N.am      10 UNK        -0.7343 
     21 O          29.6700  -43.6326  -59.1178 O.2       10 UNK        -0.5027 
     22 N          27.1858  -45.3679  -57.0573 N.am      10 UNK        -0.4495 
     23 C          25.8590  -45.3779  -57.2316 C.2       10 UNK         0.4903 
     24 O          25.2134  -44.4108  -57.6410 O.2       10 UNK        -0.4860 
     25 CA         25.1349  -46.7064  -56.9172 C.3       9 UNK         0.0227 
     26 CB         23.6868  -46.7376  -57.4491 C.3       9 UNK        -0.1964 
     27 N          25.8644  -47.8975  -57.3739 N.am      9 UNK        -0.4231 
     28 C          26.3460  -48.1375  -58.6050 C.2       9 UNK         0.5014 
     29 O          26.2016  -47.3691  -59.5564 O.2       9 UNK        -0.5270 
     30 CA         27.1597  -49.4250  -58.8177 C.3       8 UNK         0.0284 
     31 CB         28.5145  -49.1210  -59.4817 C.3       8 UNK        -0.1977 
     32 N          27.3985  -50.1406  -57.5618 N.am      8 UNK        -0.4342 
     33 C          27.1135  -51.4325  -57.3552 C.2       8 UNK         0.5039 
     34 O          26.6333  -52.1764  -58.2116 O.2       8 UNK        -0.5547 
     35 CA         27.4083  -52.0051  -55.9585 C.3       7 UNK         0.0281 
     36 CB         28.7720  -52.7155  -55.9461 C.3       7 UNK        -0.1963 
     37 N          27.3529  -51.0165  -54.8745 N.am      7 UNK        -0.4444 
     38 C          26.2208  -50.4230  -54.4607 C.2       7 UNK         0.5104 
     39 O          25.1357  -50.5636  -55.0238 O.2       7 UNK        -0.5100 
     40 CA         26.2957  -49.5159  -53.2257 C.3       6 UNK         0.0396 
     41 CB         26.2020  -50.3542  -51.9408 C.3       6 UNK        -0.1801 
     42 N          27.5322  -48.7399  -53.2055 N.am      6 UNK        -0.4747 
     43 C          27.6105  -47.4019  -53.2648 C.2       6 UNK         0.5012 
     44 O          26.6394  -46.6475  -53.3211 O.2       6 UNK        -0.5003 
     45 CA         29.0410  -46.8216  -53.2588 C.3       5 UNK         0.0782 
     46 C46        29.5451  -46.8337  -51.7825 C.3       11 UNK        -0.0868 
     47 S47        31.3228  -46.5189  -51.5121 S.3       11 UNK        -0.2515 
     48 C48        31.3457  -44.8581  -50.7667 C.3       11 UNK         0.0199 
     49 N          29.9376  -47.5339  -54.1816 N.am      5 UNK        -0.4607 
     50 C          29.6812  -47.9585  -55.4315 C.2       4 UNK         0.5031 
     51 O          28.6627  -47.6798  -56.0663 O.2       4 UNK        -0.5119 
     52 CA         30.6743  -48.9552  -56.0601 C.3       4 UNK         0.0263 
     53 CB         31.5365  -48.2881  -57.1421 C.3       4 UNK        -0.1967 
     54 N          31.5427  -49.6434  -55.1005 N.am      4 UNK        -0.4237 
     55 C          31.1599  -50.3808  -54.0493 C.2       3 UNK         0.4908 
     56 O          29.9803  -50.6202  -53.7761 O.2       3 UNK        -0.5102 
     57 CA         32.2716  -50.8817  -53.1084 C.3       3 UNK         0.0241 
     58 CB         32.9175  -52.1737  -53.6450 C.3       3 UNK        -0.1971 
     59 N          33.2745  -49.8544  -52.7716 N.am      3 UNK        -0.4139 
     60 C          34.1798  -49.2652  -53.5692 C.2       2 UNK         0.5016 
     61 O          34.3802  -49.5807  -54.7448 O.2       2 UNK        -0.5319 
     62 CA         34.9619  -48.0852  -52.9595 C.3       2 UNK         0.0286 
     63 CB         36.4110  -48.5008  -52.6596 C.3       2 UNK        -0.1963 
     64 N          34.9705  -46.8728  -53.7944 N.am      2 UNK        -0.4790 
     65 C          33.8945  -46.2900  -54.3504 C.2       1 UNK         0.5024 
     66 O          32.7666  -46.7740  -54.3211 O.2       1 UNK        -0.4888 
     67 H67        33.5144  -44.5700  -59.4868 H         1 UNK         0.0892 
     68 H68        34.8191  -45.6195  -58.9279 H         1 UNK         0.0892 
     69 H69        33.2066  -46.2846  -59.2014 H         1 UNK         0.0892 
     70 H70        35.2450  -45.4040  -56.7410 H         1 UNK         0.3107 
     71 H71        33.1397  -44.4062  -54.8972 H         1 UNK         0.0773 
     72 H72        35.1866  -44.1183  -53.3193 H         1 UNK         0.0680 
     73 H73        36.1891  -44.3873  -54.7216 H         1 UNK         0.0680 
     74 H74        34.8548  -41.7161  -52.5612 H         1 UNK         0.0650 
     75 H75        34.0622  -40.5330  -53.5659 H         1 UNK         0.0650 
     76 H76        33.5897  -43.5493  -51.5946 H         1 UNK         0.1397 
     77 H77        29.3660  -43.7504  -52.2608 H         1 UNK         0.1363 
     78 H78        31.7769  -41.0637  -54.5818 H         1 UNK         0.1355 
     79 H79        28.6158  -41.2517  -53.5733 H         1 UNK         0.0707 
     80 H80        29.4497  -41.2652  -55.1078 H         1 UNK         0.0707 
     81 H81        29.7905  -43.1858  -56.5359 H         1 UNK         0.1034 
     82 H82        29.6008  -44.8045  -55.9249 H         1 UNK         0.1034 
     83 H83        27.4746  -43.3532  -57.5672 H         1 UNK         0.0482 
     84 H84        27.7318  -46.0727  -59.3385 H         1 UNK         0.3460 
     85 H85        28.9846  -45.5463  -60.4370 H         1 UNK         0.3460 
     86 H86        27.6461  -46.2136  -56.7294 H         1 UNK         0.2989 
     87 H87        25.0906  -46.7753  -55.8292 H         1 UNK         0.0559 
     88 H88        23.0966  -45.9213  -57.0308 H         1 UNK         0.0848 
     89 H89        23.1854  -47.6675  -57.1809 H         1 UNK         0.0848 
     90 H90        23.6552  -46.6403  -58.5350 H         1 UNK         0.0848 
     91 H91        26.0237  -48.6003  -56.6675 H         1 UNK         0.3144 
     92 H92        26.5749  -50.0416  -59.5030 H         1 UNK         0.0727 
     93 H93        29.0993  -48.4186  -58.8893 H         1 UNK         0.0790 
     94 H94        28.3778  -48.6778  -60.4689 H         1 UNK         0.0790 
     95 H95        29.1066  -50.0267  -59.6140 H         1 UNK         0.0790 
     96 H96        27.8049  -49.5975  -56.8098 H         1 UNK         0.3215 
     97 H97        26.6414  -52.7556  -55.7533 H         1 UNK         0.0863 
     98 H98        28.9778  -53.1665  -54.9752 H         1 UNK         0.0808 
     99 H99        29.5892  -52.0334  -56.1789 H         1 UNK         0.0808 
    100 H100       28.7995  -53.5162  -56.6864 H         1 UNK         0.0808 
    101 H101       28.2213  -50.8613  -54.3676 H         1 UNK         0.3118 
    102 H102       25.4299  -48.8511  -53.2580 H         1 UNK         0.0546 
    103 H103       27.0419  -51.0434  -51.8430 H         1 UNK         0.0828 
    104 H104       25.2875  -50.9487  -51.9277 H         1 UNK         0.0828 
    105 H105       26.1867  -49.7185  -51.0555 H         1 UNK         0.0828 
    106 H106       28.4004  -49.2636  -53.1921 H         1 UNK         0.3005 
    107 H107       28.9874  -45.7908  -53.6082 H         1 UNK         0.1257 
    108 H108       28.9609  -46.1276  -51.1899 H         1 UNK         0.0775 
    109 H109       29.3634  -47.8093  -51.3261 H         1 UNK         0.0775 
    110 H110       30.4575  -44.6961  -50.1547 H         1 UNK         0.0840 
    111 H111       32.1928  -44.8005  -50.0815 H         1 UNK         0.0840 
    112 H112       30.8693  -47.7066  -53.8231 H         1 UNK         0.2987 
    113 H113       30.0704  -49.7200  -56.5486 H         1 UNK         0.0785 
    114 H114       30.9548  -47.6024  -57.7595 H         1 UNK         0.0798 
    115 H115       31.9789  -49.0308  -57.8058 H         1 UNK         0.0798 
    116 H116       32.3493  -47.7125  -56.7044 H         1 UNK         0.0798 
    117 H117       32.5434  -49.4906  -55.2043 H         1 UNK         0.3079 
    118 H118       31.7836  -51.1326  -52.1651 H         1 UNK         0.0794 
    119 H119       33.6651  -52.5599  -52.9522 H         1 UNK         0.0786 
    120 H120       33.4012  -52.0231  -54.6104 H         1 UNK         0.0786 
    121 H121       32.1668  -52.9536  -53.7803 H         1 UNK         0.0786 
    122 H122       33.1878  -49.4902  -51.8324 H         1 UNK         0.3032 
    123 H123       34.4846  -47.8077  -52.0171 H         1 UNK         0.1094 
    124 H124       36.9569  -48.7398  -53.5734 H         1 UNK         0.0794 
    125 H125       36.9538  -47.7113  -52.1393 H         1 UNK         0.0794 
    126 H126       36.4409  -49.3856  -52.0221 H         1 UNK         0.0794 
    127 H127       35.8649  -46.4180  -53.9009 H         1 UNK         0.3016 
@<TRIPOS>BOND
     1    1    2 1    
     2    1   67 1    
     3    1   68 1    
     4    1   69 1    
     5    2    3 2    
     6    2    4 am   BACKBONE|DICT|INTERRES
     7    4    5 1    
     8    4   70 1    
     9    5    6 1    
    10    5   65 1    
    11    5   71 1    
    12    6    7 1    
    13    6   72 1    
    14    6   73 1    
    15    7    8 1    
    16    8    9 1    
    17    8   74 1    
    18    8   75 1    
    19    9   10 ar   
    20    9   14 ar   
    21   10   11 ar   
    22   10   76 1    
    23   11   12 ar   
    24   11   48 1    
    25   12   13 ar   
    26   12   77 1    
    27   13   14 ar   
    28   13   15 1    
    29   14   78 1    
    30   15   16 1    
    31   15   79 1    
    32   15   80 1    
    33   16   17 1    
    34   17   18 1    
    35   17   81 1    
    36   17   82 1    
    37   18   19 1    
    38   18   22 1    
    39   18   83 1    
    40   19   20 am   BACKBONE|DICT|INTERRES
    41   19   21 2    
    42   20   84 1    
    43   20   85 1    
    44   22   23 am   BACKBONE|DICT|INTERRES
    45   22   86 1    
    46   23   24 2    
    47   23   25 1    
    48   25   26 1    
    49   25   27 1    
    50   25   87 1    
    51   26   88 1    
    52   26   89 1    
    53   26   90 1    
    54   27   28 am   BACKBONE|DICT|INTERRES
    55   27   91 1    
    56   28   29 2    
    57   28   30 1    
    58   30   31 1    
    59   30   32 1    
    60   30   92 1    
    61   31   93 1    
    62   31   94 1    
    63   31   95 1    
    64   32   33 am   BACKBONE|DICT|INTERRES
    65   32   96 1    
    66   33   34 2    
    67   33   35 1    
    68   35   36 1    
    69   35   37 1    
    70   35   97 1    
    71   36   98 1    
    72   36   99 1    
    73   36  100 1    
    74   37   38 am   BACKBONE|DICT|INTERRES
    75   37  101 1    
    76   38   39 2    
    77   38   40 1    
    78   40   41 1    
    79   40   42 1    
    80   40  102 1    
    81   41  103 1    
    82   41  104 1    
    83   41  105 1    
    84   42   43 am   BACKBONE|DICT|INTERRES
    85   42  106 1    
    86   43   44 2    
    87   43   45 1    
    88   45   46 1    
    89   45   49 1    
    90   45  107 1    
    91   46   47 1    
    92   46  108 1    
    93   46  109 1    
    94   47   48 1    
    95   48  110 1    
    96   48  111 1    
    97   49   50 am   BACKBONE|DICT|INTERRES
    98   49  112 1    
    99   50   51 2    
   100   50   52 1    
   101   52   53 1    
   102   52   54 1    
   103   52  113 1    
   104   53  114 1    
   105   53  115 1    
   106   53  116 1    
   107   54   55 am   BACKBONE|DICT|INTERRES
   108   54  117 1    
   109   55   56 2    
   110   55   57 1    
   111   57   58 1    
   112   57   59 1    
   113   57  118 1    
   114   58  119 1    
   115   58  120 1    
   116   58  121 1    
   117   59   60 am   BACKBONE|DICT|INTERRES
   118   59  122 1    
   119   60   61 2    
   120   60   62 1    
   121   62   63 1    
   122   62   64 1    
   123   62  123 1    
   124   63  124 1    
   125   63  125 1    
   126   63  126 1    
   127   64   65 am   BACKBONE|DICT|INTERRES
   128   64  127 1    
   129   65   66 2    
@<TRIPOS>SUBSTRUCTURE
     1 UNK         1 GROUP             0       ****    0 ROOT    
