@<TRIPOS>MOLECULE
3R134
127   129    1
SMALL
USER_CHARGES


@<TRIPOS>ATOM
      1 CA         27.3488  -49.9222  -52.7844 C.3       0 UNK        -0.1968 
      2 C          28.4385  -49.0729  -52.1449 C.2       0 UNK         0.4852 
      3 O          29.0951  -49.5382  -51.2112 O.2       0 UNK        -0.5359 
      4 N          28.6387  -47.8377  -52.6257 N.am      1 UNK        -0.4300 
      5 CA         29.6497  -46.9146  -52.0970 C.3       1 UNK         0.0863 
      6 C6         29.3294  -45.4276  -52.3975 C.3       11 UNK        -0.0953 
      7 S7         29.2761  -45.0146  -54.1683 S.3       11 UNK        -0.2369 
      8 C8         30.8100  -44.0652  -54.3891 C.3       11 UNK         0.0226 
      9 C9         31.1895  -44.0413  -55.8593 C.ar      11 UNK        -0.0699 
     10 C10        32.2668  -44.8002  -56.3230 C.ar      11 UNK        -0.0804 
     11 C11        32.5578  -44.8547  -57.6885 C.ar      11 UNK        -0.0871 
     12 C12        31.7633  -44.1390  -58.5901 C.ar      11 UNK        -0.1008 
     13 C13        30.6889  -43.3643  -58.1392 C.ar      11 UNK        -0.0735 
     14 C14        30.4223  -43.3061  -56.7668 C.ar      11 UNK        -0.0945 
     15 C15        29.8340  -42.5997  -59.1468 C.3       11 UNK         0.0169 
     16 S16        28.0388  -42.8211  -58.8923 S.3       11 UNK        -0.2669 
     17 C17        27.6313  -41.2778  -58.0005 C.3       11 UNK        -0.0850 
     18 CA         26.3240  -41.3420  -57.1673 C.3       10 UNK         0.0855 
     19 C          25.0419  -41.2959  -58.0530 C.2       10 UNK         0.5543 
     20 N          24.0818  -42.2005  -57.9044 N.am      10 UNK        -0.7343 
     21 O          24.9051  -40.4011  -58.8845 O.2       10 UNK        -0.5027 
     22 N          26.3574  -42.4272  -56.1729 N.am      10 UNK        -0.4495 
     23 C          25.7236  -42.3948  -54.9940 C.2       10 UNK         0.4903 
     24 O          25.1196  -41.4061  -54.5734 O.2       10 UNK        -0.4860 
     25 CA         25.7652  -43.6860  -54.1490 C.3       9 UNK         0.0227 
     26 CB         24.7296  -43.6788  -53.0048 C.3       9 UNK        -0.1964 
     27 N          25.6366  -44.9250  -54.9312 N.am      9 UNK        -0.4231 
     28 C          24.6565  -45.2515  -55.7859 C.2       9 UNK         0.5014 
     29 O          23.7573  -44.4772  -56.1184 O.2       9 UNK        -0.5270 
     30 CA         24.6844  -46.6819  -56.3649 C.3       8 UNK         0.0284 
     31 CB         23.5702  -46.9208  -57.4023 C.3       8 UNK        -0.1977 
     32 N          25.9705  -47.0466  -56.9665 N.am      8 UNK        -0.4342 
     33 C          27.0730  -47.3893  -56.2916 C.2       8 UNK         0.5039 
     34 O          27.1582  -47.3415  -55.0607 O.2       8 UNK        -0.5547 
     35 CA         28.2768  -47.8319  -57.1371 C.3       7 UNK         0.0281 
     36 CB         29.0556  -46.6219  -57.6722 C.3       7 UNK        -0.1963 
     37 N          29.1849  -48.6789  -56.3655 N.am      7 UNK        -0.4444 
     38 C          28.9800  -49.9783  -56.1154 C.2       7 UNK         0.5104 
     39 O          27.9992  -50.6055  -56.5201 O.2       7 UNK        -0.5100 
     40 CA         30.0647  -50.6934  -55.2843 C.3       6 UNK         0.0396 
     41 CB         29.9955  -52.2308  -55.3928 C.3       6 UNK        -0.1801 
     42 N          31.4182  -50.2064  -55.5693 N.am      6 UNK        -0.4747 
     43 C          32.0675  -50.2490  -56.7446 C.2       6 UNK         0.5012 
     44 O          31.6116  -50.7468  -57.7747 O.2       6 UNK        -0.5003 
     45 CA         33.4858  -49.6494  -56.7480 C.3       5 UNK         0.0782 
     46 C46        33.4559  -48.0997  -56.7544 C.3       11 UNK        -0.0868 
     47 S47        33.2519  -47.4295  -58.4374 S.3       11 UNK        -0.2515 
     48 C48        33.7256  -45.6884  -58.1944 C.3       11 UNK         0.0199 
     49 N          34.2689  -50.1845  -55.6299 N.am      5 UNK        -0.4607 
     50 C          34.7846  -51.4223  -55.6025 C.2       4 UNK         0.5031 
     51 O          34.7255  -52.2118  -56.5453 O.2       4 UNK        -0.5119 
     52 CA         35.4840  -51.8562  -54.3052 C.3       4 UNK         0.0263 
     53 CB         36.9549  -51.4102  -54.3078 C.3       4 UNK        -0.1967 
     54 N          34.8201  -51.3338  -53.1111 N.am      4 UNK        -0.4237 
     55 C          33.6537  -51.7681  -52.6201 C.2       3 UNK         0.4908 
     56 O          33.0120  -52.6994  -53.1056 O.2       3 UNK        -0.5102 
     57 CA         33.1070  -51.0462  -51.3749 C.3       3 UNK         0.0241 
     58 CB         33.9086  -51.4246  -50.1137 C.3       3 UNK        -0.1971 
     59 N          32.9839  -49.5876  -51.5156 N.am      3 UNK        -0.4139 
     60 C          33.9383  -48.6642  -51.7100 C.2       2 UNK         0.5016 
     61 O          35.1375  -48.9326  -51.7995 O.2       2 UNK        -0.5319 
     62 CA         33.5034  -47.1881  -51.8196 C.3       2 UNK         0.0286 
     63 CB         34.0679  -46.5271  -53.0943 C.3       2 UNK        -0.1963 
     64 N          32.0564  -46.9459  -51.6946 N.am      2 UNK        -0.4790 
     65 C          31.0754  -47.3179  -52.5309 C.2       1 UNK         0.5024 
     66 O          31.2618  -47.9532  -53.5733 O.2       1 UNK        -0.4888 
     67 H67        26.5309  -50.0693  -52.0799 H         1 UNK         0.0892 
     68 H68        27.7416  -50.9016  -53.0552 H         1 UNK         0.0892 
     69 H69        26.9405  -49.4639  -53.6831 H         1 UNK         0.0892 
     70 H70        28.1275  -47.5241  -53.4503 H         1 UNK         0.3107 
     71 H71        29.6181  -47.0128  -51.0093 H         1 UNK         0.0773 
     72 H72        30.0386  -44.7709  -51.8907 H         1 UNK         0.0680 
     73 H73        28.3543  -45.1784  -51.9762 H         1 UNK         0.0680 
     74 H74        30.6689  -43.0488  -54.0193 H         1 UNK         0.0650 
     75 H75        31.6083  -44.5116  -53.7952 H         1 UNK         0.0650 
     76 H76        32.8648  -45.3666  -55.6239 H         1 UNK         0.1397 
     77 H77        31.9815  -44.1902  -59.6482 H         1 UNK         0.1363 
     78 H78        29.5874  -42.7292  -56.3982 H         1 UNK         0.1355 
     79 H79        30.0638  -42.9318  -60.1611 H         1 UNK         0.0707 
     80 H80        30.0956  -41.5408  -59.1106 H         1 UNK         0.0707 
     81 H81        27.5866  -40.4619  -58.7246 H         1 UNK         0.1034 
     82 H82        28.4568  -41.0181  -57.3374 H         1 UNK         0.1034 
     83 H83        26.2917  -40.4032  -56.6105 H         1 UNK         0.0482 
     84 H84        24.1444  -42.9342  -57.2047 H         1 UNK         0.3460 
     85 H85        23.2615  -42.1404  -58.4859 H         1 UNK         0.3460 
     86 H86        26.8086  -43.2816  -56.4658 H         1 UNK         0.2989 
     87 H87        26.7522  -43.7094  -53.6888 H         1 UNK         0.0559 
     88 H88        24.8054  -44.5794  -52.3957 H         1 UNK         0.0848 
     89 H89        23.7096  -43.6157  -53.3857 H         1 UNK         0.0848 
     90 H90        24.8830  -42.8279  -52.3398 H         1 UNK         0.0848 
     91 H91        26.3433  -45.6394  -54.7638 H         1 UNK         0.3144 
     92 H92        24.4986  -47.3573  -55.5268 H         1 UNK         0.0727 
     93 H93        23.5662  -47.9535  -57.7516 H         1 UNK         0.0790 
     94 H94        23.6818  -46.2711  -58.2715 H         1 UNK         0.0790 
     95 H95        22.5864  -46.7251  -56.9733 H         1 UNK         0.0790 
     96 H96        25.9986  -47.0639  -57.9761 H         1 UNK         0.3215 
     97 H97        27.9065  -48.4064  -57.9891 H         1 UNK         0.0863 
     98 H98        29.8802  -46.9304  -58.3155 H         1 UNK         0.0808 
     99 H99        29.4761  -46.0299  -56.8626 H         1 UNK         0.0808 
    100 H100       28.4168  -45.9612  -58.2593 H         1 UNK         0.0808 
    101 H101       29.9773  -48.2265  -55.9317 H         1 UNK         0.3118 
    102 H102       29.8766  -50.4333  -54.2440 H         1 UNK         0.0546 
    103 H103       29.0327  -52.6043  -55.0425 H         1 UNK         0.0828 
    104 H104       30.7662  -52.7059  -54.7860 H         1 UNK         0.0828 
    105 H105       30.1210  -52.5709  -56.4211 H         1 UNK         0.0828 
    106 H106       31.8559  -49.7114  -54.8020 H         1 UNK         0.3005 
    107 H107       33.9739  -49.9839  -57.6673 H         1 UNK         0.1257 
    108 H108       34.3981  -47.7121  -56.3638 H         1 UNK         0.0775 
    109 H109       32.6716  -47.7041  -56.1065 H         1 UNK         0.0775 
    110 H110       34.5709  -45.6165  -57.5083 H         1 UNK         0.0840 
    111 H111       34.0801  -45.2900  -59.1463 H         1 UNK         0.0840 
    112 H112       34.3711  -49.5998  -54.8147 H         1 UNK         0.2987 
    113 H113       35.4574  -52.9473  -54.2617 H         1 UNK         0.0785 
    114 H114       37.0490  -50.3235  -54.3233 H         1 UNK         0.0798 
    115 H115       37.4786  -51.7967  -55.1833 H         1 UNK         0.0798 
    116 H116       37.4815  -51.7791  -53.4274 H         1 UNK         0.0798 
    117 H117       35.2422  -50.5297  -52.6483 H         1 UNK         0.3079 
    118 H118       32.0876  -51.4093  -51.2309 H         1 UNK         0.0794 
    119 H119       34.9432  -51.0841  -50.1656 H         1 UNK         0.0786 
    120 H120       33.9307  -52.5066  -49.9771 H         1 UNK         0.0786 
    121 H121       33.4605  -50.9949  -49.2177 H         1 UNK         0.0786 
    122 H122       32.0333  -49.2443  -51.4954 H         1 UNK         0.3032 
    123 H123       33.9640  -46.6895  -50.9649 H         1 UNK         0.1094 
    124 H124       33.6915  -47.0030  -53.9979 H         1 UNK         0.0794 
    125 H125       33.8139  -45.4684  -53.1380 H         1 UNK         0.0794 
    126 H126       35.1561  -46.5956  -53.1238 H         1 UNK         0.0794 
    127 H127       31.7882  -46.4466  -50.8565 H         1 UNK         0.3016 
@<TRIPOS>BOND
     1    1    2 1    
     2    1   67 1    
     3    1   68 1    
     4    1   69 1    
     5    2    3 2    
     6    2    4 am   BACKBONE|DICT|INTERRES
     7    4    5 1    
     8    4   70 1    
     9    5    6 1    
    10    5   65 1    
    11    5   71 1    
    12    6    7 1    
    13    6   72 1    
    14    6   73 1    
    15    7    8 1    
    16    8    9 1    
    17    8   74 1    
    18    8   75 1    
    19    9   10 ar   
    20    9   14 ar   
    21   10   11 ar   
    22   10   76 1    
    23   11   12 ar   
    24   11   48 1    
    25   12   13 ar   
    26   12   77 1    
    27   13   14 ar   
    28   13   15 1    
    29   14   78 1    
    30   15   16 1    
    31   15   79 1    
    32   15   80 1    
    33   16   17 1    
    34   17   18 1    
    35   17   81 1    
    36   17   82 1    
    37   18   19 1    
    38   18   22 1    
    39   18   83 1    
    40   19   20 am   BACKBONE|DICT|INTERRES
    41   19   21 2    
    42   20   84 1    
    43   20   85 1    
    44   22   23 am   BACKBONE|DICT|INTERRES
    45   22   86 1    
    46   23   24 2    
    47   23   25 1    
    48   25   26 1    
    49   25   27 1    
    50   25   87 1    
    51   26   88 1    
    52   26   89 1    
    53   26   90 1    
    54   27   28 am   BACKBONE|DICT|INTERRES
    55   27   91 1    
    56   28   29 2    
    57   28   30 1    
    58   30   31 1    
    59   30   32 1    
    60   30   92 1    
    61   31   93 1    
    62   31   94 1    
    63   31   95 1    
    64   32   33 am   BACKBONE|DICT|INTERRES
    65   32   96 1    
    66   33   34 2    
    67   33   35 1    
    68   35   36 1    
    69   35   37 1    
    70   35   97 1    
    71   36   98 1    
    72   36   99 1    
    73   36  100 1    
    74   37   38 am   BACKBONE|DICT|INTERRES
    75   37  101 1    
    76   38   39 2    
    77   38   40 1    
    78   40   41 1    
    79   40   42 1    
    80   40  102 1    
    81   41  103 1    
    82   41  104 1    
    83   41  105 1    
    84   42   43 am   BACKBONE|DICT|INTERRES
    85   42  106 1    
    86   43   44 2    
    87   43   45 1    
    88   45   46 1    
    89   45   49 1    
    90   45  107 1    
    91   46   47 1    
    92   46  108 1    
    93   46  109 1    
    94   47   48 1    
    95   48  110 1    
    96   48  111 1    
    97   49   50 am   BACKBONE|DICT|INTERRES
    98   49  112 1    
    99   50   51 2    
   100   50   52 1    
   101   52   53 1    
   102   52   54 1    
   103   52  113 1    
   104   53  114 1    
   105   53  115 1    
   106   53  116 1    
   107   54   55 am   BACKBONE|DICT|INTERRES
   108   54  117 1    
   109   55   56 2    
   110   55   57 1    
   111   57   58 1    
   112   57   59 1    
   113   57  118 1    
   114   58  119 1    
   115   58  120 1    
   116   58  121 1    
   117   59   60 am   BACKBONE|DICT|INTERRES
   118   59  122 1    
   119   60   61 2    
   120   60   62 1    
   121   62   63 1    
   122   62   64 1    
   123   62  123 1    
   124   63  124 1    
   125   63  125 1    
   126   63  126 1    
   127   64   65 am   BACKBONE|DICT|INTERRES
   128   64  127 1    
   129   65   66 2    
@<TRIPOS>SUBSTRUCTURE
     1 UNK         1 GROUP             0       ****    0 ROOT    
