@<TRIPOS>MOLECULE
3R134
127   129    1
SMALL
USER_CHARGES


@<TRIPOS>ATOM
      1 CA         29.0441  -45.1529  -49.6357 C.3       0 UNK        -0.1968 
      2 C          30.5333  -45.4480  -49.5277 C.2       0 UNK         0.4852 
      3 O          31.0422  -45.6323  -48.4205 O.2       0 UNK        -0.5359 
      4 N          31.2328  -45.4835  -50.6686 N.am      1 UNK        -0.4300 
      5 CA         32.6592  -45.8085  -50.7753 C.3       1 UNK         0.0863 
      6 C6         33.2339  -45.3900  -52.1530 C.3       11 UNK        -0.0953 
      7 S7         33.1788  -43.5836  -52.3784 S.3       11 UNK        -0.2369 
      8 C8         33.6712  -43.4245  -54.1292 C.3       11 UNK         0.0226 
      9 C9         32.6052  -43.8212  -55.1526 C.ar      11 UNK        -0.0699 
     10 C10        33.0140  -44.2043  -56.4341 C.ar      11 UNK        -0.0804 
     11 C11        32.0779  -44.5252  -57.4229 C.ar      11 UNK        -0.0871 
     12 C12        30.7144  -44.4727  -57.1181 C.ar      11 UNK        -0.1008 
     13 C13        30.2878  -44.0925  -55.8426 C.ar      11 UNK        -0.0735 
     14 C14        31.2347  -43.7615  -54.8695 C.ar      11 UNK        -0.0945 
     15 C15        28.8071  -44.0464  -55.5005 C.3       11 UNK         0.0169 
     16 S16        28.1059  -42.3846  -55.7446 S.3       11 UNK        -0.2669 
     17 C17        27.6072  -42.4380  -57.5015 C.3       11 UNK        -0.0850 
     18 CA         26.0905  -42.7228  -57.6723 C.3       10 UNK         0.0855 
     19 C          25.6433  -42.5716  -59.1569 C.2       10 UNK         0.5543 
     20 N          25.0289  -43.5689  -59.7837 N.am      10 UNK        -0.7343 
     21 O          25.8516  -41.5175  -59.7525 O.2       10 UNK        -0.5027 
     22 N          25.7182  -44.0082  -57.0640 N.am      10 UNK        -0.4495 
     23 C          24.5196  -44.3119  -56.5548 C.2       10 UNK         0.4903 
     24 O          23.5851  -43.5131  -56.4731 O.2       10 UNK        -0.4860 
     25 CA         24.3473  -45.7637  -56.0602 C.3       9 UNK         0.0227 
     26 CB         22.8678  -46.1965  -55.9887 C.3       9 UNK        -0.1964 
     27 N          25.1355  -46.7421  -56.8258 N.am      9 UNK        -0.4231 
     28 C          25.0636  -46.9817  -58.1478 C.2       9 UNK         0.5014 
     29 O          24.3224  -46.3611  -58.9115 O.2       9 UNK        -0.5270 
     30 CA         25.9964  -48.0550  -58.7426 C.3       8 UNK         0.0284 
     31 CB         27.0417  -47.3999  -59.6620 C.3       8 UNK        -0.1977 
     32 N          26.6802  -48.8623  -57.7282 N.am      8 UNK        -0.4342 
     33 C          26.0880  -49.8219  -56.9990 C.2       8 UNK         0.5039 
     34 O          24.9246  -50.1846  -57.1768 O.2       8 UNK        -0.5547 
     35 CA         26.9008  -50.4749  -55.8631 C.3       7 UNK         0.0281 
     36 CB         27.3300  -51.8963  -56.2599 C.3       7 UNK        -0.1963 
     37 N          28.0800  -49.7070  -55.4501 N.am      7 UNK        -0.4444 
     38 C          28.0451  -48.4895  -54.8844 C.2       7 UNK         0.5104 
     39 O          27.0002  -47.8924  -54.6213 O.2       7 UNK        -0.5100 
     40 CA         29.3929  -47.7840  -54.6361 C.3       6 UNK         0.0396 
     41 CB         29.8436  -47.9816  -53.1836 C.3       6 UNK        -0.1801 
     42 N          30.4692  -48.1980  -55.5436 N.am      6 UNK        -0.4747 
     43 C          30.4135  -48.1161  -56.8845 C.2       6 UNK         0.5012 
     44 O          29.4394  -47.6611  -57.4852 O.2       6 UNK        -0.5003 
     45 CA         31.5859  -48.7184  -57.6969 C.3       5 UNK         0.0782 
     46 C46        32.6076  -47.6438  -58.1435 C.3       11 UNK        -0.0868 
     47 S47        31.9423  -46.5085  -59.4077 S.3       11 UNK        -0.2515 
     48 C48        32.5497  -44.8903  -58.8271 C.3       11 UNK         0.0199 
     49 N          32.2713  -49.8108  -56.9992 N.am      5 UNK        -0.4607 
     50 C          31.7080  -50.9311  -56.5258 C.2       4 UNK         0.5031 
     51 O          30.5254  -51.2250  -56.6957 O.2       4 UNK        -0.5119 
     52 CA         32.5990  -51.8531  -55.6716 C.3       4 UNK         0.0263 
     53 CB         33.0718  -53.0570  -56.5019 C.3       4 UNK        -0.1967 
     54 N          33.7658  -51.1907  -55.0691 N.am      4 UNK        -0.4237 
     55 C          33.7186  -50.1517  -54.2223 C.2       3 UNK         0.4908 
     56 O          32.6763  -49.5853  -53.8856 O.2       3 UNK        -0.5102 
     57 CA         35.0717  -49.6031  -53.7435 C.3       3 UNK         0.0241 
     58 CB         35.5548  -48.4920  -54.6916 C.3       3 UNK        -0.1971 
     59 N          34.9805  -49.0606  -52.3889 N.am      3 UNK        -0.4139 
     60 C          34.8215  -49.7868  -51.2737 C.2       2 UNK         0.5016 
     61 O          34.8276  -51.0186  -51.2510 O.2       2 UNK        -0.5319 
     62 CA         34.6391  -49.0096  -49.9551 C.3       2 UNK         0.0286 
     63 CB         35.9544  -48.9845  -49.1591 C.3       2 UNK        -0.1963 
     64 N          34.1708  -47.6320  -50.1522 N.am      2 UNK        -0.4790 
     65 C          32.9202  -47.3063  -50.5087 C.2       1 UNK         0.5024 
     66 O          32.0195  -48.1350  -50.6568 O.2       1 UNK        -0.4888 
     67 H67        28.7977  -44.2536  -49.0719 H         1 UNK         0.0892 
     68 H68        28.4677  -45.9817  -49.2255 H         1 UNK         0.0892 
     69 H69        28.7312  -45.0017  -50.6688 H         1 UNK         0.0892 
     70 H70        30.7600  -45.3232  -51.5448 H         1 UNK         0.3107 
     71 H71        33.1844  -45.2470  -49.9991 H         1 UNK         0.0773 
     72 H72        32.6892  -45.8725  -52.9671 H         1 UNK         0.0680 
     73 H73        34.2764  -45.6969  -52.2539 H         1 UNK         0.0680 
     74 H74        33.9416  -42.3837  -54.3111 H         1 UNK         0.0650 
     75 H75        34.5784  -44.0103  -54.2861 H         1 UNK         0.0650 
     76 H76        34.0697  -44.2334  -56.6678 H         1 UNK         0.1397 
     77 H77        29.9887  -44.7345  -57.8756 H         1 UNK         0.1363 
     78 H78        30.8927  -43.4465  -53.8941 H         1 UNK         0.1355 
     79 H79        28.2582  -44.7845  -56.0863 H         1 UNK         0.0707 
     80 H80        28.6652  -44.3282  -54.4560 H         1 UNK         0.0707 
     81 H81        28.2036  -43.1731  -58.0427 H         1 UNK         0.1034 
     82 H82        27.8627  -41.4701  -57.9372 H         1 UNK         0.1034 
     83 H83        25.5574  -41.9372  -57.1333 H         1 UNK         0.0482 
     84 H84        24.8214  -44.4430  -59.3136 H         1 UNK         0.3460 
     85 H85        24.7461  -43.4417  -60.7421 H         1 UNK         0.3460 
     86 H86        26.4114  -44.7378  -57.1099 H         1 UNK         0.2989 
     87 H87        24.7464  -45.7851  -55.0451 H         1 UNK         0.0559 
     88 H88        22.7708  -47.2181  -55.6213 H         1 UNK         0.0848 
     89 H89        22.3836  -46.1436  -56.9644 H         1 UNK         0.0848 
     90 H90        22.3032  -45.5553  -55.3107 H         1 UNK         0.0848 
     91 H91        25.7905  -47.2886  -56.2760 H         1 UNK         0.3144 
     92 H92        25.3800  -48.7199  -59.3513 H         1 UNK         0.0727 
     93 H93        27.7223  -48.1393  -60.0845 H         1 UNK         0.0790 
     94 H94        27.6396  -46.6575  -59.1322 H         1 UNK         0.0790 
     95 H95        26.5605  -46.8888  -60.4970 H         1 UNK         0.0790 
     96 H96        27.6447  -48.6111  -57.5296 H         1 UNK         0.3215 
     97 H97        26.2394  -50.5485  -54.9971 H         1 UNK         0.0863 
     98 H98        27.8811  -52.3867  -55.4572 H         1 UNK         0.0808 
     99 H99        27.9623  -51.8924  -57.1485 H         1 UNK         0.0808 
    100 H100       26.4616  -52.5176  -56.4831 H         1 UNK         0.0808 
    101 H101       28.9827  -50.1093  -55.6797 H         1 UNK         0.3118 
    102 H102       29.2332  -46.7184  -54.7957 H         1 UNK         0.0546 
    103 H103       29.0841  -47.6336  -52.4824 H         1 UNK         0.0828 
    104 H104       30.7564  -47.4246  -52.9777 H         1 UNK         0.0828 
    105 H105       30.0405  -49.0310  -52.9600 H         1 UNK         0.0828 
    106 H106       31.2840  -48.6228  -55.1110 H         1 UNK         0.3005 
    107 H107       31.1422  -49.1600  -58.5922 H         1 UNK         0.1257 
    108 H108       33.4819  -48.1228  -58.5872 H         1 UNK         0.0775 
    109 H109       32.9805  -47.0893  -57.2808 H         1 UNK         0.0775 
    110 H110       33.6394  -44.8896  -58.8840 H         1 UNK         0.0840 
    111 H111       32.2091  -44.1206  -59.5209 H         1 UNK         0.0840 
    112 H112       33.2498  -49.6655  -56.8032 H         1 UNK         0.2987 
    113 H113       31.9781  -52.2238  -54.8533 H         1 UNK         0.0785 
    114 H114       33.7237  -52.7520  -57.3215 H         1 UNK         0.0798 
    115 H115       32.2241  -53.5863  -56.9400 H         1 UNK         0.0798 
    116 H116       33.6152  -53.7754  -55.8878 H         1 UNK         0.0798 
    117 H117       34.6687  -51.5767  -55.3074 H         1 UNK         0.3079 
    118 H118       35.8052  -50.4124  -53.7400 H         1 UNK         0.0794 
    119 H119       34.8490  -47.6606  -54.7339 H         1 UNK         0.0786 
    120 H120       35.6770  -48.8677  -55.7084 H         1 UNK         0.0786 
    121 H121       36.5209  -48.0954  -54.3786 H         1 UNK         0.0786 
    122 H122       34.9353  -48.0574  -52.3053 H         1 UNK         0.3032 
    123 H123       33.8924  -49.5475  -49.3658 H         1 UNK         0.1094 
    124 H124       36.7424  -48.4537  -49.6949 H         1 UNK         0.0794 
    125 H125       35.8229  -48.5038  -48.1895 H         1 UNK         0.0794 
    126 H126       36.3149  -49.9967  -48.9696 H         1 UNK         0.0794 
    127 H127       34.8552  -46.8981  -50.0307 H         1 UNK         0.3016 
@<TRIPOS>BOND
     1    1    2 1    
     2    1   67 1    
     3    1   68 1    
     4    1   69 1    
     5    2    3 2    
     6    2    4 am   BACKBONE|DICT|INTERRES
     7    4    5 1    
     8    4   70 1    
     9    5    6 1    
    10    5   65 1    
    11    5   71 1    
    12    6    7 1    
    13    6   72 1    
    14    6   73 1    
    15    7    8 1    
    16    8    9 1    
    17    8   74 1    
    18    8   75 1    
    19    9   10 ar   
    20    9   14 ar   
    21   10   11 ar   
    22   10   76 1    
    23   11   12 ar   
    24   11   48 1    
    25   12   13 ar   
    26   12   77 1    
    27   13   14 ar   
    28   13   15 1    
    29   14   78 1    
    30   15   16 1    
    31   15   79 1    
    32   15   80 1    
    33   16   17 1    
    34   17   18 1    
    35   17   81 1    
    36   17   82 1    
    37   18   19 1    
    38   18   22 1    
    39   18   83 1    
    40   19   20 am   BACKBONE|DICT|INTERRES
    41   19   21 2    
    42   20   84 1    
    43   20   85 1    
    44   22   23 am   BACKBONE|DICT|INTERRES
    45   22   86 1    
    46   23   24 2    
    47   23   25 1    
    48   25   26 1    
    49   25   27 1    
    50   25   87 1    
    51   26   88 1    
    52   26   89 1    
    53   26   90 1    
    54   27   28 am   BACKBONE|DICT|INTERRES
    55   27   91 1    
    56   28   29 2    
    57   28   30 1    
    58   30   31 1    
    59   30   32 1    
    60   30   92 1    
    61   31   93 1    
    62   31   94 1    
    63   31   95 1    
    64   32   33 am   BACKBONE|DICT|INTERRES
    65   32   96 1    
    66   33   34 2    
    67   33   35 1    
    68   35   36 1    
    69   35   37 1    
    70   35   97 1    
    71   36   98 1    
    72   36   99 1    
    73   36  100 1    
    74   37   38 am   BACKBONE|DICT|INTERRES
    75   37  101 1    
    76   38   39 2    
    77   38   40 1    
    78   40   41 1    
    79   40   42 1    
    80   40  102 1    
    81   41  103 1    
    82   41  104 1    
    83   41  105 1    
    84   42   43 am   BACKBONE|DICT|INTERRES
    85   42  106 1    
    86   43   44 2    
    87   43   45 1    
    88   45   46 1    
    89   45   49 1    
    90   45  107 1    
    91   46   47 1    
    92   46  108 1    
    93   46  109 1    
    94   47   48 1    
    95   48  110 1    
    96   48  111 1    
    97   49   50 am   BACKBONE|DICT|INTERRES
    98   49  112 1    
    99   50   51 2    
   100   50   52 1    
   101   52   53 1    
   102   52   54 1    
   103   52  113 1    
   104   53  114 1    
   105   53  115 1    
   106   53  116 1    
   107   54   55 am   BACKBONE|DICT|INTERRES
   108   54  117 1    
   109   55   56 2    
   110   55   57 1    
   111   57   58 1    
   112   57   59 1    
   113   57  118 1    
   114   58  119 1    
   115   58  120 1    
   116   58  121 1    
   117   59   60 am   BACKBONE|DICT|INTERRES
   118   59  122 1    
   119   60   61 2    
   120   60   62 1    
   121   62   63 1    
   122   62   64 1    
   123   62  123 1    
   124   63  124 1    
   125   63  125 1    
   126   63  126 1    
   127   64   65 am   BACKBONE|DICT|INTERRES
   128   64  127 1    
   129   65   66 2    
@<TRIPOS>SUBSTRUCTURE
     1 UNK         1 GROUP             0       ****    0 ROOT    
