@<TRIPOS>MOLECULE
3R134
127   129    1
SMALL
USER_CHARGES


@<TRIPOS>ATOM
      1 CA         37.4335  -43.4005  -49.3366 C.3       0 UNK        -0.1968 
      2 C          37.0653  -44.4186  -50.4061 C.2       0 UNK         0.4852 
      3 O          37.7678  -45.4184  -50.5662 O.2       0 UNK        -0.5359 
      4 N          35.9764  -44.1671  -51.1432 N.am      1 UNK        -0.4300 
      5 CA         35.4211  -45.0613  -52.1628 C.3       1 UNK         0.0863 
      6 C6         34.4477  -44.3264  -53.1198 C.3       11 UNK        -0.0953 
      7 S7         33.1994  -43.2821  -52.2867 S.3       11 UNK        -0.2369 
      8 C8         32.7403  -42.1459  -53.6328 C.3       11 UNK         0.0226 
      9 C9         31.8607  -42.8412  -54.6596 C.ar      11 UNK        -0.0699 
     10 C10        32.4313  -43.4884  -55.7581 C.ar      11 UNK        -0.0804 
     11 C11        31.6286  -44.1847  -56.6665 C.ar      11 UNK        -0.0871 
     12 C12        30.2409  -44.1900  -56.4902 C.ar      11 UNK        -0.1008 
     13 C13        29.6494  -43.5099  -55.4170 C.ar      11 UNK        -0.0735 
     14 C14        30.4728  -42.8505  -54.4997 C.ar      11 UNK        -0.0945 
     15 C15        28.1376  -43.4839  -55.1884 C.3       11 UNK         0.0169 
     16 S16        27.1229  -43.7400  -56.6851 S.3       11 UNK        -0.2669 
     17 C17        25.4503  -43.5466  -55.9831 C.3       11 UNK        -0.0850 
     18 CA         24.8005  -44.9082  -55.5995 C.3       10 UNK         0.0855 
     19 C          23.5294  -44.7447  -54.7089 C.2       10 UNK         0.5543 
     20 N          22.5609  -45.6509  -54.7693 N.am      10 UNK        -0.7343 
     21 O          23.4284  -43.8033  -53.9255 O.2       10 UNK        -0.5027 
     22 N          24.6313  -45.8235  -56.7463 N.am      10 UNK        -0.4495 
     23 C          23.8277  -45.6225  -57.8014 C.2       10 UNK         0.4903 
     24 O          23.1695  -44.5941  -57.9697 O.2       10 UNK        -0.4860 
     25 CA         23.6919  -46.7803  -58.8131 C.3       9 UNK         0.0227 
     26 CB         23.0368  -46.3426  -60.1413 C.3       9 UNK        -0.1964 
     27 N          24.9363  -47.5132  -59.0702 N.am      9 UNK        -0.4231 
     28 C          26.0785  -47.0470  -59.5940 C.2       9 UNK         0.5014 
     29 O          26.2604  -45.8697  -59.9090 O.2       9 UNK        -0.5270 
     30 CA         27.1956  -48.0907  -59.8204 C.3       8 UNK         0.0284 
     31 CB         28.4853  -47.4640  -60.3836 C.3       8 UNK        -0.1977 
     32 N          27.5155  -48.8395  -58.6000 N.am      8 UNK        -0.4342 
     33 C          26.7681  -49.8243  -58.0753 C.2       8 UNK         0.5039 
     34 O          25.7437  -50.2468  -58.6143 O.2       8 UNK        -0.5547 
     35 CA         27.1766  -50.4040  -56.7057 C.3       7 UNK         0.0281 
     36 CB         27.9528  -51.7173  -56.8895 C.3       7 UNK        -0.1963 
     37 N          27.9681  -49.4894  -55.8811 N.am      7 UNK        -0.4444 
     38 C          27.5949  -48.2620  -55.4962 C.2       7 UNK         0.5104 
     39 O          26.4684  -47.8037  -55.6865 O.2       7 UNK        -0.5100 
     40 CA         28.6726  -47.3745  -54.8459 C.3       6 UNK         0.0396 
     41 CB         28.5043  -47.3442  -53.3207 C.3       6 UNK        -0.1801 
     42 N          30.0547  -47.7428  -55.1841 N.am      6 UNK        -0.4747 
     43 C          30.5685  -47.7580  -56.4257 C.2       6 UNK         0.5012 
     44 O          29.9138  -47.5186  -57.4396 O.2       6 UNK        -0.5003 
     45 CA         32.0464  -48.1662  -56.5518 C.3       5 UNK         0.0782 
     46 C46        32.9949  -47.0407  -56.0584 C.3       11 UNK        -0.0868 
     47 S47        33.6538  -46.0028  -57.4061 S.3       11 UNK        -0.2515 
     48 C48        32.2454  -44.9250  -57.8491 C.3       11 UNK         0.0199 
     49 N          32.2586  -49.4223  -55.8319 N.am      5 UNK        -0.4607 
     50 C          31.9268  -50.6312  -56.3080 C.2       4 UNK         0.5031 
     51 O          31.5349  -50.8245  -57.4581 O.2       4 UNK        -0.5119 
     52 CA         32.0285  -51.8297  -55.3445 C.3       4 UNK         0.0263 
     53 CB         33.3545  -52.5771  -55.5580 C.3       4 UNK        -0.1967 
     54 N          31.9085  -51.4574  -53.9325 N.am      4 UNK        -0.4237 
     55 C          30.8097  -50.9396  -53.3634 C.2       3 UNK         0.4908 
     56 O          29.7370  -50.8065  -53.9497 O.2       3 UNK        -0.5102 
     57 CA         30.9480  -50.4277  -51.9168 C.3       3 UNK         0.0241 
     58 CB         30.5164  -51.5139  -50.9192 C.3       3 UNK        -0.1971 
     59 N          32.3000  -49.9613  -51.5821 N.am      3 UNK        -0.4139 
     60 C          32.9452  -48.9654  -52.2065 C.2       2 UNK         0.5016 
     61 O          32.4562  -48.3051  -53.1279 O.2       2 UNK        -0.5319 
     62 CA         34.4111  -48.7570  -51.7978 C.3       2 UNK         0.0286 
     63 CB         35.2932  -49.8470  -52.4322 C.3       2 UNK        -0.1963 
     64 N          34.9166  -47.4526  -52.2258 N.am      2 UNK        -0.4790 
     65 C          34.7825  -46.3170  -51.5308 C.2       1 UNK         0.5024 
     66 O          34.2021  -46.2418  -50.4441 O.2       1 UNK        -0.4888 
     67 H67        37.4296  -43.8713  -48.3539 H         1 UNK         0.0892 
     68 H68        38.4320  -43.0056  -49.5220 H         1 UNK         0.0892 
     69 H69        36.7367  -42.5628  -49.3138 H         1 UNK         0.0892 
     70 H70        35.4151  -43.3502  -50.9470 H         1 UNK         0.3107 
     71 H71        36.2622  -45.4051  -52.7695 H         1 UNK         0.0773 
     72 H72        33.9353  -45.0344  -53.7735 H         1 UNK         0.0680 
     73 H73        35.0328  -43.6866  -53.7821 H         1 UNK         0.0680 
     74 H74        33.6372  -41.7404  -54.1035 H         1 UNK         0.0650 
     75 H75        32.2093  -41.2935  -53.2066 H         1 UNK         0.0650 
     76 H76        33.5045  -43.4774  -55.8898 H         1 UNK         0.1397 
     77 H77        29.6234  -44.7320  -57.1931 H         1 UNK         0.1363 
     78 H78        30.0329  -42.3461  -53.6500 H         1 UNK         0.1355 
     79 H79        27.8617  -42.5204  -54.7565 H         1 UNK         0.0707 
     80 H80        27.8798  -44.2404  -54.4467 H         1 UNK         0.0707 
     81 H81        25.5164  -42.8876  -55.1158 H         1 UNK         0.1034 
     82 H82        24.8298  -43.0131  -56.7040 H         1 UNK         0.1034 
     83 H83        25.5071  -45.4123  -54.9399 H         1 UNK         0.0482 
     84 H84        22.6391  -46.4393  -55.3911 H         1 UNK         0.3460 
     85 H85        21.7474  -45.5458  -54.1837 H         1 UNK         0.3460 
     86 H86        25.1536  -46.6909  -56.6689 H         1 UNK         0.2989 
     87 H87        23.0195  -47.5005  -58.3450 H         1 UNK         0.0559 
     88 H88        22.0426  -45.9274  -59.9713 H         1 UNK         0.0848 
     89 H89        22.9202  -47.1842  -60.8241 H         1 UNK         0.0848 
     90 H90        23.6253  -45.5775  -60.6487 H         1 UNK         0.0848 
     91 H91        24.9244  -48.5056  -58.8445 H         1 UNK         0.3144 
     92 H92        26.8245  -48.7961  -60.5670 H         1 UNK         0.0727 
     93 H93        28.8794  -46.6906  -59.7233 H         1 UNK         0.0790 
     94 H94        28.3011  -46.9989  -61.3528 H         1 UNK         0.0790 
     95 H95        29.2644  -48.2130  -60.5259 H         1 UNK         0.0790 
     96 H96        28.3230  -48.5073  -58.0786 H         1 UNK         0.3215 
     97 H97        26.2573  -50.6202  -56.1578 H         1 UNK         0.0863 
     98 H98        28.1896  -52.1777  -55.9299 H         1 UNK         0.0808 
     99 H99        28.8887  -51.5593  -57.4264 H         1 UNK         0.0808 
    100 H100       27.3677  -52.4401  -57.4598 H         1 UNK         0.0808 
    101 H101       28.8746  -49.8205  -55.5697 H         1 UNK         0.3118 
    102 H102       28.5156  -46.3653  -55.2266 H         1 UNK         0.0546 
    103 H103       28.6026  -48.3394  -52.8878 H         1 UNK         0.0828 
    104 H104       27.5173  -46.9684  -53.0477 H         1 UNK         0.0828 
    105 H105       29.2409  -46.6929  -52.8497 H         1 UNK         0.0828 
    106 H106       30.6728  -47.9599  -54.4104 H         1 UNK         0.3005 
    107 H107       32.2443  -48.3530  -57.6103 H         1 UNK         0.1257 
    108 H108       32.5410  -46.4149  -55.2873 H         1 UNK         0.0775 
    109 H109       33.8692  -47.4803  -55.5758 H         1 UNK         0.0775 
    110 H110       32.5883  -44.1889  -58.5771 H         1 UNK         0.0840 
    111 H111       31.4954  -45.5278  -58.3629 H         1 UNK         0.0840 
    112 H112       32.5238  -49.3266  -54.8582 H         1 UNK         0.2987 
    113 H113       31.2069  -52.5091  -55.5821 H         1 UNK         0.0785 
    114 H114       33.4610  -52.8928  -56.5970 H         1 UNK         0.0798 
    115 H115       33.4084  -53.4752  -54.9424 H         1 UNK         0.0798 
    116 H116       34.2152  -51.9513  -55.3182 H         1 UNK         0.0798 
    117 H117       32.7399  -51.5469  -53.3679 H         1 UNK         0.3079 
    118 H118       30.2748  -49.5764  -51.8057 H         1 UNK         0.0794 
    119 H119       30.5185  -51.1373  -49.8960 H         1 UNK         0.0786 
    120 H120       31.1719  -52.3848  -50.9592 H         1 UNK         0.0786 
    121 H121       29.5033  -51.8584  -51.1326 H         1 UNK         0.0786 
    122 H122       32.7757  -50.4601  -50.8434 H         1 UNK         0.3032 
    123 H123       34.4830  -48.8312  -50.7098 H         1 UNK         0.1094 
    124 H124       35.2307  -49.8370  -53.5215 H         1 UNK         0.0794 
    125 H125       36.3404  -49.7169  -52.1575 H         1 UNK         0.0794 
    126 H126       34.9993  -50.8425  -52.0972 H         1 UNK         0.0794 
    127 H127       35.3650  -47.4219  -53.1297 H         1 UNK         0.3016 
@<TRIPOS>BOND
     1    1    2 1    
     2    1   67 1    
     3    1   68 1    
     4    1   69 1    
     5    2    3 2    
     6    2    4 am   BACKBONE|DICT|INTERRES
     7    4    5 1    
     8    4   70 1    
     9    5    6 1    
    10    5   65 1    
    11    5   71 1    
    12    6    7 1    
    13    6   72 1    
    14    6   73 1    
    15    7    8 1    
    16    8    9 1    
    17    8   74 1    
    18    8   75 1    
    19    9   10 ar   
    20    9   14 ar   
    21   10   11 ar   
    22   10   76 1    
    23   11   12 ar   
    24   11   48 1    
    25   12   13 ar   
    26   12   77 1    
    27   13   14 ar   
    28   13   15 1    
    29   14   78 1    
    30   15   16 1    
    31   15   79 1    
    32   15   80 1    
    33   16   17 1    
    34   17   18 1    
    35   17   81 1    
    36   17   82 1    
    37   18   19 1    
    38   18   22 1    
    39   18   83 1    
    40   19   20 am   BACKBONE|DICT|INTERRES
    41   19   21 2    
    42   20   84 1    
    43   20   85 1    
    44   22   23 am   BACKBONE|DICT|INTERRES
    45   22   86 1    
    46   23   24 2    
    47   23   25 1    
    48   25   26 1    
    49   25   27 1    
    50   25   87 1    
    51   26   88 1    
    52   26   89 1    
    53   26   90 1    
    54   27   28 am   BACKBONE|DICT|INTERRES
    55   27   91 1    
    56   28   29 2    
    57   28   30 1    
    58   30   31 1    
    59   30   32 1    
    60   30   92 1    
    61   31   93 1    
    62   31   94 1    
    63   31   95 1    
    64   32   33 am   BACKBONE|DICT|INTERRES
    65   32   96 1    
    66   33   34 2    
    67   33   35 1    
    68   35   36 1    
    69   35   37 1    
    70   35   97 1    
    71   36   98 1    
    72   36   99 1    
    73   36  100 1    
    74   37   38 am   BACKBONE|DICT|INTERRES
    75   37  101 1    
    76   38   39 2    
    77   38   40 1    
    78   40   41 1    
    79   40   42 1    
    80   40  102 1    
    81   41  103 1    
    82   41  104 1    
    83   41  105 1    
    84   42   43 am   BACKBONE|DICT|INTERRES
    85   42  106 1    
    86   43   44 2    
    87   43   45 1    
    88   45   46 1    
    89   45   49 1    
    90   45  107 1    
    91   46   47 1    
    92   46  108 1    
    93   46  109 1    
    94   47   48 1    
    95   48  110 1    
    96   48  111 1    
    97   49   50 am   BACKBONE|DICT|INTERRES
    98   49  112 1    
    99   50   51 2    
   100   50   52 1    
   101   52   53 1    
   102   52   54 1    
   103   52  113 1    
   104   53  114 1    
   105   53  115 1    
   106   53  116 1    
   107   54   55 am   BACKBONE|DICT|INTERRES
   108   54  117 1    
   109   55   56 2    
   110   55   57 1    
   111   57   58 1    
   112   57   59 1    
   113   57  118 1    
   114   58  119 1    
   115   58  120 1    
   116   58  121 1    
   117   59   60 am   BACKBONE|DICT|INTERRES
   118   59  122 1    
   119   60   61 2    
   120   60   62 1    
   121   62   63 1    
   122   62   64 1    
   123   62  123 1    
   124   63  124 1    
   125   63  125 1    
   126   63  126 1    
   127   64   65 am   BACKBONE|DICT|INTERRES
   128   64  127 1    
   129   65   66 2    
@<TRIPOS>SUBSTRUCTURE
     1 UNK         1 GROUP             0       ****    0 ROOT    
