@<TRIPOS>MOLECULE
3R134
127   129    1
SMALL
USER_CHARGES


@<TRIPOS>ATOM
      1 CA         35.7881  -44.3438  -47.5074 C.3       0 UNK        -0.1968 
      2 C          35.9948  -44.8370  -48.9322 C.2       0 UNK         0.4852 
      3 O          37.0683  -45.3516  -49.2512 O.2       0 UNK        -0.5359 
      4 N          34.9803  -44.6750  -49.7905 N.am      1 UNK        -0.4300 
      5 CA         34.9650  -45.1527  -51.1760 C.3       1 UNK         0.0863 
      6 C6         33.9213  -44.4007  -52.0400 C.3       11 UNK        -0.0953 
      7 S7         32.2361  -44.3376  -51.3342 S.3       11 UNK        -0.2369 
      8 C8         31.5384  -42.9100  -52.2259 C.3       11 UNK         0.0226 
      9 C9         31.0733  -43.2896  -53.6250 C.ar      11 UNK        -0.0699 
     10 C10        31.9968  -43.4326  -54.6644 C.ar      11 UNK        -0.0804 
     11 C11        31.5806  -43.8112  -55.9435 C.ar      11 UNK        -0.0871 
     12 C12        30.2169  -43.9993  -56.1909 C.ar      11 UNK        -0.1008 
     13 C13        29.2798  -43.8370  -55.1662 C.ar      11 UNK        -0.0735 
     14 C14        29.7150  -43.4921  -53.8834 C.ar      11 UNK        -0.0945 
     15 C15        27.7987  -44.0544  -55.4303 C.3       11 UNK         0.0169 
     16 S16        26.9953  -42.5355  -56.0324 S.3       11 UNK        -0.2669 
     17 C17        27.1196  -42.7386  -57.8448 C.3       11 UNK        -0.0850 
     18 CA         25.7997  -43.2697  -58.4656 C.3       10 UNK         0.0855 
     19 C          25.8611  -43.2876  -60.0218 C.2       10 UNK         0.5543 
     20 N          25.5974  -44.4019  -60.6957 N.am      10 UNK        -0.7343 
     21 O          26.1459  -42.2612  -60.6336 O.2       10 UNK        -0.5027 
     22 N          25.4144  -44.5572  -57.8712 N.am      10 UNK        -0.4495 
     23 C          24.1627  -44.9969  -57.7089 C.2       10 UNK         0.4903 
     24 O          23.1598  -44.3416  -57.9965 O.2       10 UNK        -0.4860 
     25 CA         24.0235  -46.4179  -57.1263 C.3       9 UNK         0.0227 
     26 CB         22.6500  -47.0543  -57.4270 C.3       9 UNK        -0.1964 
     27 N          25.1121  -47.3222  -57.5264 N.am      9 UNK        -0.4231 
     28 C          25.4535  -47.6743  -58.7792 C.2       9 UNK         0.5014 
     29 O          24.9066  -47.2203  -59.7856 O.2       9 UNK        -0.5270 
     30 CA         26.6165  -48.6698  -58.9616 C.3       8 UNK         0.0284 
     31 CB         27.7909  -48.0013  -59.6968 C.3       8 UNK        -0.1977 
     32 N          27.0895  -49.2465  -57.6992 N.am      8 UNK        -0.4342 
     33 C          26.4404  -50.2070  -57.0228 C.2       8 UNK         0.5039 
     34 O          25.4213  -50.7562  -57.4435 O.2       8 UNK        -0.5547 
     35 CA         26.9822  -50.6219  -55.6412 C.3       7 UNK         0.0281 
     36 CB         27.6575  -52.0004  -55.7298 C.3       7 UNK        -0.1963 
     37 N          27.9117  -49.6691  -55.0260 N.am      7 UNK        -0.4444 
     38 C          27.6311  -48.4038  -54.6822 C.2       7 UNK         0.5104 
     39 O          26.5293  -47.8773  -54.8464 O.2       7 UNK        -0.5100 
     40 CA         28.8056  -47.5638  -54.1436 C.3       6 UNK         0.0396 
     41 CB         29.0369  -47.8271  -52.6488 C.3       6 UNK        -0.1801 
     42 N          30.0531  -47.7769  -54.8873 N.am      6 UNK        -0.4747 
     43 C          30.1937  -47.5619  -56.2057 C.2       6 UNK         0.5012 
     44 O          29.2849  -47.1513  -56.9271 O.2       6 UNK        -0.5003 
     45 CA         31.5439  -47.9428  -56.8377 C.3       5 UNK         0.0782 
     46 C46        32.6159  -46.8350  -56.6749 C.3       11 UNK        -0.0868 
     47 S47        32.4410  -45.5596  -57.9714 S.3       11 UNK        -0.2515 
     48 C48        32.6156  -43.9954  -57.0483 C.3       11 UNK         0.0199 
     49 N          31.9915  -49.2397  -56.3258 N.am      5 UNK        -0.4607 
     50 C          31.5251  -50.4150  -56.7747 C.2       4 UNK         0.5031 
     51 O          30.7399  -50.5220  -57.7165 O.2       4 UNK        -0.5119 
     52 CA         31.9950  -51.6905  -56.0519 C.3       4 UNK         0.0263 
     53 CB         33.2430  -52.2668  -56.7394 C.3       4 UNK        -0.1967 
     54 N          32.2765  -51.4867  -54.6296 N.am      4 UNK        -0.4237 
     55 C          31.3619  -51.1452  -53.7107 C.2       3 UNK         0.4908 
     56 O          30.1641  -51.0140  -53.9528 O.2       3 UNK        -0.5102 
     57 CA         31.8766  -50.8452  -52.2935 C.3       3 UNK         0.0241 
     58 CB         31.8630  -52.1200  -51.4353 C.3       3 UNK        -0.1971 
     59 N          33.2156  -50.2475  -52.2679 N.am      3 UNK        -0.4139 
     60 C          33.5517  -49.0909  -52.8560 C.2       2 UNK         0.5016 
     61 O          32.7761  -48.4048  -53.5294 O.2       2 UNK        -0.5319 
     62 CA         35.0240  -48.6706  -52.7307 C.3       2 UNK         0.0286 
     63 CB         35.7720  -48.9714  -54.0402 C.3       2 UNK        -0.1963 
     64 N          35.1574  -47.2483  -52.4180 N.am      2 UNK        -0.4790 
     65 C          34.7839  -46.6830  -51.2616 C.2       1 UNK         0.5024 
     66 O          34.3180  -47.3152  -50.3090 O.2       1 UNK        -0.4888 
     67 H67        35.8878  -45.1718  -46.8061 H         1 UNK         0.0892 
     68 H68        36.5370  -43.5926  -47.2575 H         1 UNK         0.0892 
     69 H69        34.8028  -43.8990  -47.3687 H         1 UNK         0.0892 
     70 H70        34.1083  -44.2793  -49.4684 H         1 UNK         0.3107 
     71 H71        35.9477  -44.9352  -51.6010 H         1 UNK         0.0773 
     72 H72        33.8636  -44.8398  -53.0370 H         1 UNK         0.0680 
     73 H73        34.2680  -43.3768  -52.1870 H         1 UNK         0.0680 
     74 H74        30.7009  -42.5189  -51.6463 H         1 UNK         0.0650 
     75 H75        32.2701  -42.1026  -52.2780 H         1 UNK         0.0650 
     76 H76        33.0456  -43.2569  -54.4742 H         1 UNK         0.1397 
     77 H77        29.8889  -44.2904  -57.1787 H         1 UNK         0.1363 
     78 H78        28.9937  -43.3779  -53.0859 H         1 UNK         0.1355 
     79 H79        27.6590  -44.8739  -56.1364 H         1 UNK         0.0707 
     80 H80        27.2996  -44.3656  -54.5113 H         1 UNK         0.0707 
     81 H81        27.3695  -41.7620  -58.2637 H         1 UNK         0.1034 
     82 H82        27.9549  -43.3925  -58.0970 H         1 UNK         0.1034 
     83 H83        25.0210  -42.5450  -58.2200 H         1 UNK         0.0482 
     84 H84        25.3344  -45.2576  -60.2203 H         1 UNK         0.3460 
     85 H85        25.6391  -44.3853  -61.7021 H         1 UNK         0.3460 
     86 H86        26.1706  -45.1783  -57.6289 H         1 UNK         0.2989 
     87 H87        24.1066  -46.3090  -56.0440 H         1 UNK         0.0559 
     88 H88        22.4708  -47.1413  -58.4991 H         1 UNK         0.0848 
     89 H89        21.8399  -46.4549  -57.0099 H         1 UNK         0.0848 
     90 H90        22.5707  -48.0505  -56.9919 H         1 UNK         0.0848 
     91 H91        25.6484  -47.7136  -56.7582 H         1 UNK         0.3144 
     92 H92        26.2498  -49.4831  -59.5914 H         1 UNK         0.0727 
     93 H93        28.1103  -47.0829  -59.2041 H         1 UNK         0.0790 
     94 H94        27.5062  -47.7328  -60.7150 H         1 UNK         0.0790 
     95 H95        28.6527  -48.6657  -59.7657 H         1 UNK         0.0790 
     96 H96        27.9128  -48.8213  -57.2876 H         1 UNK         0.3215 
     97 H97        26.1200  -50.7069  -54.9766 H         1 UNK         0.0863 
     98 H98        27.9314  -52.3725  -54.7425 H         1 UNK         0.0808 
     99 H99        28.5618  -51.9653  -56.3386 H         1 UNK         0.0808 
    100 H100       26.9903  -52.7386  -56.1768 H         1 UNK         0.0808 
    101 H101       28.8346  -50.0326  -54.7939 H         1 UNK         0.3118 
    102 H102       28.5392  -46.5134  -54.2573 H         1 UNK         0.0546 
    103 H103       29.8555  -47.2203  -52.2602 H         1 UNK         0.0828 
    104 H104       29.2696  -48.8734  -52.4539 H         1 UNK         0.0828 
    105 H105       28.1462  -47.5800  -52.0700 H         1 UNK         0.0828 
    106 H106       30.8585  -48.1005  -54.3613 H         1 UNK         0.3005 
    107 H107       31.3603  -48.0688  -57.9080 H         1 UNK         0.1257 
    108 H108       32.5916  -46.3930  -55.6766 H         1 UNK         0.0775 
    109 H109       33.6146  -47.2600  -56.7860 H         1 UNK         0.0775 
    110 H110       33.6278  -43.9488  -56.6435 H         1 UNK         0.0840 
    111 H111       32.5279  -43.1644  -57.7493 H         1 UNK         0.0840 
    112 H112       32.5751  -49.2173  -55.4989 H         1 UNK         0.2987 
    113 H113       31.1905  -52.4251  -56.1292 H         1 UNK         0.0785 
    114 H114       34.0920  -51.5849  -56.6754 H         1 UNK         0.0798 
    115 H115       33.0538  -52.4526  -57.7978 H         1 UNK         0.0798 
    116 H116       33.5391  -53.2169  -56.2944 H         1 UNK         0.0798 
    117 H117       33.2377  -51.5790  -54.3363 H         1 UNK         0.3079 
    118 H118       31.1924  -50.1246  -51.8425 H         1 UNK         0.0794 
    119 H119       32.5563  -52.8719  -51.8145 H         1 UNK         0.0786 
    120 H120       30.8692  -52.5702  -51.4224 H         1 UNK         0.0786 
    121 H121       32.1316  -51.9054  -50.4007 H         1 UNK         0.0786 
    122 H122       33.9189  -50.7484  -51.7437 H         1 UNK         0.3032 
    123 H123       35.4919  -49.2376  -51.9225 H         1 UNK         0.1094 
    124 H124       36.8289  -48.7153  -53.9619 H         1 UNK         0.0794 
    125 H125       35.7165  -50.0320  -54.2893 H         1 UNK         0.0794 
    126 H126       35.3539  -48.4171  -54.8818 H         1 UNK         0.0794 
    127 H127       35.5005  -46.6572  -53.1610 H         1 UNK         0.3016 
@<TRIPOS>BOND
     1    1    2 1    
     2    1   67 1    
     3    1   68 1    
     4    1   69 1    
     5    2    3 2    
     6    2    4 am   BACKBONE|DICT|INTERRES
     7    4    5 1    
     8    4   70 1    
     9    5    6 1    
    10    5   65 1    
    11    5   71 1    
    12    6    7 1    
    13    6   72 1    
    14    6   73 1    
    15    7    8 1    
    16    8    9 1    
    17    8   74 1    
    18    8   75 1    
    19    9   10 ar   
    20    9   14 ar   
    21   10   11 ar   
    22   10   76 1    
    23   11   12 ar   
    24   11   48 1    
    25   12   13 ar   
    26   12   77 1    
    27   13   14 ar   
    28   13   15 1    
    29   14   78 1    
    30   15   16 1    
    31   15   79 1    
    32   15   80 1    
    33   16   17 1    
    34   17   18 1    
    35   17   81 1    
    36   17   82 1    
    37   18   19 1    
    38   18   22 1    
    39   18   83 1    
    40   19   20 am   BACKBONE|DICT|INTERRES
    41   19   21 2    
    42   20   84 1    
    43   20   85 1    
    44   22   23 am   BACKBONE|DICT|INTERRES
    45   22   86 1    
    46   23   24 2    
    47   23   25 1    
    48   25   26 1    
    49   25   27 1    
    50   25   87 1    
    51   26   88 1    
    52   26   89 1    
    53   26   90 1    
    54   27   28 am   BACKBONE|DICT|INTERRES
    55   27   91 1    
    56   28   29 2    
    57   28   30 1    
    58   30   31 1    
    59   30   32 1    
    60   30   92 1    
    61   31   93 1    
    62   31   94 1    
    63   31   95 1    
    64   32   33 am   BACKBONE|DICT|INTERRES
    65   32   96 1    
    66   33   34 2    
    67   33   35 1    
    68   35   36 1    
    69   35   37 1    
    70   35   97 1    
    71   36   98 1    
    72   36   99 1    
    73   36  100 1    
    74   37   38 am   BACKBONE|DICT|INTERRES
    75   37  101 1    
    76   38   39 2    
    77   38   40 1    
    78   40   41 1    
    79   40   42 1    
    80   40  102 1    
    81   41  103 1    
    82   41  104 1    
    83   41  105 1    
    84   42   43 am   BACKBONE|DICT|INTERRES
    85   42  106 1    
    86   43   44 2    
    87   43   45 1    
    88   45   46 1    
    89   45   49 1    
    90   45  107 1    
    91   46   47 1    
    92   46  108 1    
    93   46  109 1    
    94   47   48 1    
    95   48  110 1    
    96   48  111 1    
    97   49   50 am   BACKBONE|DICT|INTERRES
    98   49  112 1    
    99   50   51 2    
   100   50   52 1    
   101   52   53 1    
   102   52   54 1    
   103   52  113 1    
   104   53  114 1    
   105   53  115 1    
   106   53  116 1    
   107   54   55 am   BACKBONE|DICT|INTERRES
   108   54  117 1    
   109   55   56 2    
   110   55   57 1    
   111   57   58 1    
   112   57   59 1    
   113   57  118 1    
   114   58  119 1    
   115   58  120 1    
   116   58  121 1    
   117   59   60 am   BACKBONE|DICT|INTERRES
   118   59  122 1    
   119   60   61 2    
   120   60   62 1    
   121   62   63 1    
   122   62   64 1    
   123   62  123 1    
   124   63  124 1    
   125   63  125 1    
   126   63  126 1    
   127   64   65 am   BACKBONE|DICT|INTERRES
   128   64  127 1    
   129   65   66 2    
@<TRIPOS>SUBSTRUCTURE
     1 UNK         1 GROUP             0       ****    0 ROOT    
