@<TRIPOS>MOLECULE
3R134
127   129    1
SMALL
USER_CHARGES


@<TRIPOS>ATOM
      1 CA         35.7639  -45.5170  -50.0383 C.3       0 UNK        -0.1968 
      2 C          34.8035  -45.9206  -51.1469 C.2       0 UNK         0.4852 
      3 O          35.1857  -46.6726  -52.0449 O.2       0 UNK        -0.5359 
      4 N          33.5537  -45.4428  -51.0848 N.am      1 UNK        -0.4300 
      5 CA         32.4844  -45.6784  -52.0663 C.3       1 UNK         0.0863 
      6 C6         31.4221  -44.5454  -52.0346 C.3       11 UNK        -0.0953 
      7 S7         32.1363  -42.8675  -52.1601 S.3       11 UNK        -0.2369 
      8 C8         31.0351  -42.0608  -53.3764 C.3       11 UNK         0.0226 
      9 C9         31.0653  -42.6589  -54.7832 C.ar      11 UNK        -0.0699 
     10 C10        32.1850  -43.3391  -55.2753 C.ar      11 UNK        -0.0804 
     11 C11        32.1621  -43.9224  -56.5427 C.ar      11 UNK        -0.0871 
     12 C12        31.0340  -43.7682  -57.3510 C.ar      11 UNK        -0.1008 
     13 C13        29.9160  -43.0664  -56.8947 C.ar      11 UNK        -0.0735 
     14 C14        29.9385  -42.5227  -55.6022 C.ar      11 UNK        -0.0945 
     15 C15        28.7081  -42.9729  -57.8270 C.3       11 UNK         0.0169 
     16 S16        27.4283  -41.7607  -57.3567 S.3       11 UNK        -0.2669 
     17 C17        26.2493  -41.9609  -58.7381 C.3       11 UNK        -0.0850 
     18 CA         24.9422  -42.6992  -58.3197 C.3       10 UNK         0.0855 
     19 C          23.8397  -42.7045  -59.4257 C.2       10 UNK         0.5543 
     20 N          23.6951  -41.6300  -60.1908 N.am      10 UNK        -0.7343 
     21 O          23.0688  -43.6526  -59.5680 O.2       10 UNK        -0.5027 
     22 N          25.2000  -44.0317  -57.7475 N.am      10 UNK        -0.4495 
     23 C          25.6854  -45.1054  -58.3815 C.2       10 UNK         0.4903 
     24 O          26.0584  -45.1036  -59.5563 O.2       10 UNK        -0.4860 
     25 CA         25.7907  -46.3929  -57.5389 C.3       9 UNK         0.0227 
     26 CB         26.0493  -47.6390  -58.4009 C.3       9 UNK        -0.1964 
     27 N          26.8225  -46.3057  -56.4993 N.am      9 UNK        -0.4231 
     28 C          26.7169  -45.5822  -55.3754 C.2       9 UNK         0.5014 
     29 O          25.7222  -44.9086  -55.0918 O.2       9 UNK        -0.5270 
     30 CA         27.9125  -45.6407  -54.4071 C.3       8 UNK         0.0284 
     31 CB         27.7268  -44.7182  -53.1809 C.3       8 UNK        -0.1977 
     32 N          28.2081  -47.0161  -53.9886 N.am      8 UNK        -0.4342 
     33 C          27.4176  -47.8532  -53.2988 C.2       8 UNK         0.5039 
     34 O          26.2914  -47.5696  -52.8855 O.2       8 UNK        -0.5547 
     35 CA         28.0055  -49.2528  -53.0343 C.3       7 UNK         0.0281 
     36 CB         27.0205  -50.2137  -52.3340 C.3       7 UNK        -0.1963 
     37 N          28.5622  -49.8571  -54.2497 N.am      7 UNK        -0.4444 
     38 C          27.9034  -50.1895  -55.3722 C.2       7 UNK         0.5104 
     39 O          26.6864  -50.0751  -55.5217 O.2       7 UNK        -0.5100 
     40 CA         28.7728  -50.7406  -56.5217 C.3       6 UNK         0.0396 
     41 CB         28.0486  -50.8066  -57.8809 C.3       6 UNK        -0.1801 
     42 N          30.0561  -50.0449  -56.6584 N.am      6 UNK        -0.4747 
     43 C          30.2645  -48.7266  -56.8242 C.2       6 UNK         0.5012 
     44 O          29.3511  -47.9042  -56.9388 O.2       6 UNK        -0.5003 
     45 CA         31.7309  -48.2347  -56.8022 C.3       5 UNK         0.0782 
     46 C46        31.8721  -46.9879  -55.8982 C.3       11 UNK        -0.0868 
     47 S47        33.5485  -46.2577  -55.9483 S.3       11 UNK        -0.2515 
     48 C48        33.3234  -44.7882  -57.0092 C.3       11 UNK         0.0199 
     49 N          32.6234  -49.3015  -56.3448 N.am      5 UNK        -0.4607 
     50 C          33.4581  -50.0179  -57.1055 C.2       4 UNK         0.5031 
     51 O          33.6234  -49.8281  -58.3103 O.2       4 UNK        -0.5119 
     52 CA         34.2237  -51.1598  -56.4059 C.3       4 UNK         0.0263 
     53 CB         35.6425  -50.6995  -56.0344 C.3       4 UNK        -0.1967 
     54 N          33.5520  -51.6647  -55.2014 N.am      4 UNK        -0.4237 
     55 C          32.3592  -52.2784  -55.1896 C.2       3 UNK         0.4908 
     56 O          31.7307  -52.5616  -56.2089 O.2       3 UNK        -0.5102 
     57 CA         31.7221  -52.5638  -53.8173 C.3       3 UNK         0.0241 
     58 CB         32.0444  -53.9965  -53.3646 C.3       3 UNK        -0.1971 
     59 N          32.1038  -51.6206  -52.7578 N.am      3 UNK        -0.4139 
     60 C          31.9060  -50.2940  -52.7775 C.2       2 UNK         0.5016 
     61 O          31.3877  -49.7076  -53.7308 O.2       2 UNK        -0.5319 
     62 CA         32.3571  -49.5051  -51.5326 C.3       2 UNK         0.0286 
     63 CB         33.5673  -50.1424  -50.8192 C.3       2 UNK        -0.1963 
     64 N          32.6977  -48.1171  -51.8497 N.am      2 UNK        -0.4790 
     65 C          31.8511  -47.0809  -51.8777 C.2       1 UNK         0.5024 
     66 O          30.6359  -47.1976  -51.7119 O.2       1 UNK        -0.4888 
     67 H67        36.6287  -45.0057  -50.4602 H         1 UNK         0.0892 
     68 H68        35.2953  -44.8498  -49.3151 H         1 UNK         0.0892 
     69 H69        36.1157  -46.4009  -49.5069 H         1 UNK         0.0892 
     70 H70        33.2962  -44.8430  -50.3140 H         1 UNK         0.3107 
     71 H71        32.9342  -45.6714  -53.0609 H         1 UNK         0.0773 
     72 H72        30.8321  -44.5870  -51.1170 H         1 UNK         0.0680 
     73 H73        30.7256  -44.6901  -52.8605 H         1 UNK         0.0680 
     74 H74        30.0181  -42.0892  -52.9817 H         1 UNK         0.0650 
     75 H75        31.3117  -41.0082  -53.4454 H         1 UNK         0.0650 
     76 H76        33.0658  -43.4622  -54.6613 H         1 UNK         0.1397 
     77 H77        31.0127  -44.2237  -58.3321 H         1 UNK         0.1363 
     78 H78        29.0765  -41.9971  -55.2173 H         1 UNK         0.1355 
     79 H79        28.2545  -43.9613  -57.8899 H         1 UNK         0.0707 
     80 H80        29.0566  -42.7250  -58.8309 H         1 UNK         0.0707 
     81 H81        26.7280  -42.4721  -59.5750 H         1 UNK         0.1034 
     82 H82        26.0269  -40.9548  -59.0949 H         1 UNK         0.1034 
     83 H83        24.4988  -42.1313  -57.5012 H         1 UNK         0.0482 
     84 H84        22.9694  -41.6266  -60.8907 H         1 UNK         0.3460 
     85 H85        24.2819  -40.8188  -60.0784 H         1 UNK         0.3460 
     86 H86        24.9995  -44.1360  -56.7575 H         1 UNK         0.2989 
     87 H87        24.8244  -46.5356  -57.0504 H         1 UNK         0.0559 
     88 H88        25.3123  -47.7245  -59.2005 H         1 UNK         0.0848 
     89 H89        25.9779  -48.5462  -57.8014 H         1 UNK         0.0848 
     90 H90        27.0359  -47.6104  -58.8651 H         1 UNK         0.0848 
     91 H91        27.6747  -46.8367  -56.6598 H         1 UNK         0.3144 
     92 H92        28.7870  -45.2904  -54.9579 H         1 UNK         0.0727 
     93 H93        28.5275  -44.8419  -52.4547 H         1 UNK         0.0790 
     94 H94        26.7891  -44.9176  -52.6610 H         1 UNK         0.0790 
     95 H95        27.7129  -43.6707  -53.4838 H         1 UNK         0.0790 
     96 H96        29.0992  -47.3806  -54.2932 H         1 UNK         0.3215 
     97 H97        28.8468  -49.1040  -52.3560 H         1 UNK         0.0863 
     98 H98        27.4798  -51.1838  -52.1445 H         1 UNK         0.0808 
     99 H99        26.1198  -50.3774  -52.9262 H         1 UNK         0.0808 
    100 H100       26.7048  -49.8109  -51.3710 H         1 UNK         0.0808 
    101 H101       29.5764  -49.9463  -54.2513 H         1 UNK         0.3118 
    102 H102       29.0117  -51.7658  -56.2357 H         1 UNK         0.0546 
    103 H103       27.8692  -49.8153  -58.2913 H         1 UNK         0.0828 
    104 H104       27.0857  -51.3118  -57.7981 H         1 UNK         0.0828 
    105 H105       28.6392  -51.3608  -58.6101 H         1 UNK         0.0828 
    106 H106       30.8709  -50.6419  -56.5744 H         1 UNK         0.3005 
    107 H107       31.9761  -47.9490  -57.8274 H         1 UNK         0.1257 
    108 H108       31.1292  -46.2375  -56.1619 H         1 UNK         0.0775 
    109 H109       31.6581  -47.2495  -54.8614 H         1 UNK         0.0775 
    110 H110       34.2407  -44.1981  -57.0020 H         1 UNK         0.0840 
    111 H111       33.1765  -45.1176  -58.0389 H         1 UNK         0.0840 
    112 H112       32.5230  -49.5379  -55.3632 H         1 UNK         0.2987 
    113 H113       34.3027  -51.9848  -57.1171 H         1 UNK         0.0785 
    114 H114       36.2263  -51.5142  -55.6056 H         1 UNK         0.0798 
    115 H115       35.6255  -49.8800  -55.3144 H         1 UNK         0.0798 
    116 H116       36.1808  -50.3466  -56.9154 H         1 UNK         0.0798 
    117 H117       34.0002  -51.4745  -54.3171 H         1 UNK         0.3079 
    118 H118       30.6404  -52.4834  -53.9452 H         1 UNK         0.0794 
    119 H119       31.7474  -54.7223  -54.1234 H         1 UNK         0.0786 
    120 H120       31.5112  -54.2538  -52.4492 H         1 UNK         0.0786 
    121 H121       33.1113  -54.1333  -53.1830 H         1 UNK         0.0786 
    122 H122       32.5350  -52.0228  -51.9378 H         1 UNK         0.3032 
    123 H123       31.5138  -49.5086  -50.8382 H         1 UNK         0.1094 
    124 H124       33.8956  -49.5273  -49.9807 H         1 UNK         0.0794 
    125 H125       33.3261  -51.1225  -50.4062 H         1 UNK         0.0794 
    126 H126       34.4185  -50.2610  -51.4914 H         1 UNK         0.0794 
    127 H127       33.6785  -47.9090  -52.0174 H         1 UNK         0.3016 
@<TRIPOS>BOND
     1    1    2 1    
     2    1   67 1    
     3    1   68 1    
     4    1   69 1    
     5    2    3 2    
     6    2    4 am   BACKBONE|DICT|INTERRES
     7    4    5 1    
     8    4   70 1    
     9    5    6 1    
    10    5   65 1    
    11    5   71 1    
    12    6    7 1    
    13    6   72 1    
    14    6   73 1    
    15    7    8 1    
    16    8    9 1    
    17    8   74 1    
    18    8   75 1    
    19    9   10 ar   
    20    9   14 ar   
    21   10   11 ar   
    22   10   76 1    
    23   11   12 ar   
    24   11   48 1    
    25   12   13 ar   
    26   12   77 1    
    27   13   14 ar   
    28   13   15 1    
    29   14   78 1    
    30   15   16 1    
    31   15   79 1    
    32   15   80 1    
    33   16   17 1    
    34   17   18 1    
    35   17   81 1    
    36   17   82 1    
    37   18   19 1    
    38   18   22 1    
    39   18   83 1    
    40   19   20 am   BACKBONE|DICT|INTERRES
    41   19   21 2    
    42   20   84 1    
    43   20   85 1    
    44   22   23 am   BACKBONE|DICT|INTERRES
    45   22   86 1    
    46   23   24 2    
    47   23   25 1    
    48   25   26 1    
    49   25   27 1    
    50   25   87 1    
    51   26   88 1    
    52   26   89 1    
    53   26   90 1    
    54   27   28 am   BACKBONE|DICT|INTERRES
    55   27   91 1    
    56   28   29 2    
    57   28   30 1    
    58   30   31 1    
    59   30   32 1    
    60   30   92 1    
    61   31   93 1    
    62   31   94 1    
    63   31   95 1    
    64   32   33 am   BACKBONE|DICT|INTERRES
    65   32   96 1    
    66   33   34 2    
    67   33   35 1    
    68   35   36 1    
    69   35   37 1    
    70   35   97 1    
    71   36   98 1    
    72   36   99 1    
    73   36  100 1    
    74   37   38 am   BACKBONE|DICT|INTERRES
    75   37  101 1    
    76   38   39 2    
    77   38   40 1    
    78   40   41 1    
    79   40   42 1    
    80   40  102 1    
    81   41  103 1    
    82   41  104 1    
    83   41  105 1    
    84   42   43 am   BACKBONE|DICT|INTERRES
    85   42  106 1    
    86   43   44 2    
    87   43   45 1    
    88   45   46 1    
    89   45   49 1    
    90   45  107 1    
    91   46   47 1    
    92   46  108 1    
    93   46  109 1    
    94   47   48 1    
    95   48  110 1    
    96   48  111 1    
    97   49   50 am   BACKBONE|DICT|INTERRES
    98   49  112 1    
    99   50   51 2    
   100   50   52 1    
   101   52   53 1    
   102   52   54 1    
   103   52  113 1    
   104   53  114 1    
   105   53  115 1    
   106   53  116 1    
   107   54   55 am   BACKBONE|DICT|INTERRES
   108   54  117 1    
   109   55   56 2    
   110   55   57 1    
   111   57   58 1    
   112   57   59 1    
   113   57  118 1    
   114   58  119 1    
   115   58  120 1    
   116   58  121 1    
   117   59   60 am   BACKBONE|DICT|INTERRES
   118   59  122 1    
   119   60   61 2    
   120   60   62 1    
   121   62   63 1    
   122   62   64 1    
   123   62  123 1    
   124   63  124 1    
   125   63  125 1    
   126   63  126 1    
   127   64   65 am   BACKBONE|DICT|INTERRES
   128   64  127 1    
   129   65   66 2    
@<TRIPOS>SUBSTRUCTURE
     1 UNK         1 GROUP             0       ****    0 ROOT    
