@<TRIPOS>MOLECULE
3R134
127   129    1
SMALL
USER_CHARGES


@<TRIPOS>ATOM
      1 CA         27.4816  -45.5481  -51.2558 C.3       0 UNK        -0.1968 
      2 C          28.9692  -45.5035  -50.9405 C.2       0 UNK         0.4852 
      3 O          29.3449  -45.4924  -49.7679 O.2       0 UNK        -0.5359 
      4 N          29.8169  -45.4670  -51.9766 N.am      1 UNK        -0.4300 
      5 CA         31.2766  -45.4829  -51.8596 C.3       1 UNK         0.0863 
      6 C6         31.9381  -44.9597  -53.1588 C.3       11 UNK        -0.0953 
      7 S7         33.7318  -44.6457  -52.9898 S.3       11 UNK        -0.2369 
      8 C8         33.9586  -43.1412  -53.9952 C.3       11 UNK         0.0226 
      9 C9         33.4754  -43.3414  -55.4242 C.ar      11 UNK        -0.0699 
     10 C10        34.1676  -44.1957  -56.2886 C.ar      11 UNK        -0.0804 
     11 C11        33.6803  -44.4430  -57.5748 C.ar      11 UNK        -0.0871 
     12 C12        32.5199  -43.7968  -58.0089 C.ar      11 UNK        -0.1008 
     13 C13        31.8052  -42.9666  -57.1443 C.ar      11 UNK        -0.0735 
     14 C14        32.3013  -42.7197  -55.8614 C.ar      11 UNK        -0.0945 
     15 C15        30.4579  -42.4122  -57.5795 C.3       11 UNK         0.0169 
     16 S16        29.1654  -43.6935  -57.4458 S.3       11 UNK        -0.2669 
     17 C17        28.9638  -43.8157  -55.6309 C.3       11 UNK        -0.0850 
     18 CA         27.4965  -43.6980  -55.1447 C.3       10 UNK         0.0855 
     19 C          26.8622  -42.3199  -55.5053 C.2       10 UNK         0.5543 
     20 N          25.8224  -42.2602  -56.3275 N.am      10 UNK        -0.7343 
     21 O          27.3224  -41.2897  -55.0195 O.2       10 UNK        -0.5027 
     22 N          26.7176  -44.8947  -55.5051 N.am      10 UNK        -0.4495 
     23 C          25.5260  -45.2201  -54.9843 C.2       10 UNK         0.4903 
     24 O          24.9321  -44.5437  -54.1453 O.2       10 UNK        -0.4860 
     25 CA         24.9034  -46.5422  -55.4611 C.3       9 UNK         0.0227 
     26 CB         24.2439  -46.3645  -56.8376 C.3       9 UNK        -0.1964 
     27 N          25.8779  -47.6384  -55.4990 N.am      9 UNK        -0.4231 
     28 C          26.4240  -48.1899  -54.4020 C.2       9 UNK         0.5014 
     29 O          26.1111  -47.8605  -53.2568 O.2       9 UNK        -0.5270 
     30 CA         27.5136  -49.2642  -54.5949 C.3       8 UNK         0.0284 
     31 CB         27.5902  -50.2581  -53.4157 C.3       8 UNK        -0.1977 
     32 N          27.4387  -49.9708  -55.8767 N.am      8 UNK        -0.4342 
     33 C          26.4604  -50.7676  -56.3286 C.2       8 UNK         0.5039 
     34 O          25.4630  -51.0755  -55.6745 O.2       8 UNK        -0.5547 
     35 CA         26.6303  -51.2847  -57.7743 C.3       7 UNK         0.0281 
     36 CB         25.3077  -51.7939  -58.3863 C.3       7 UNK        -0.1963 
     37 N          27.2712  -50.3030  -58.6641 N.am      7 UNK        -0.4444 
     38 C          26.8395  -49.0606  -58.9351 C.2       7 UNK         0.5104 
     39 O          25.7937  -48.5877  -58.4918 O.2       7 UNK        -0.5100 
     40 CA         27.7809  -48.1845  -59.7873 C.3       6 UNK         0.0396 
     41 CB         27.3484  -46.7018  -59.8223 C.3       6 UNK        -0.1801 
     42 N          29.1863  -48.3002  -59.3702 N.am      6 UNK        -0.4747 
     43 C          29.6752  -48.0526  -58.1446 C.2       6 UNK         0.5012 
     44 O          28.9919  -47.6546  -57.1963 O.2       6 UNK        -0.5003 
     45 CA         31.1849  -48.2972  -57.9448 C.3       5 UNK         0.0782 
     46 C46        31.9580  -46.9881  -58.2091 C.3       11 UNK        -0.0868 
     47 S47        33.7705  -47.1670  -58.0664 S.3       11 UNK        -0.2515 
     48 C48        34.3443  -45.4800  -58.4674 C.3       11 UNK         0.0199 
     49 N          31.4600  -48.8222  -56.6043 N.am      5 UNK        -0.4607 
     50 C          31.0069  -49.9824  -56.1138 C.2       4 UNK         0.5031 
     51 O          30.3106  -50.7650  -56.7635 O.2       4 UNK        -0.5119 
     52 CA         31.3500  -50.3018  -54.6452 C.3       4 UNK         0.0263 
     53 CB         31.4471  -51.8173  -54.3719 C.3       4 UNK        -0.1967 
     54 N          32.5268  -49.5886  -54.1313 N.am      4 UNK        -0.4237 
     55 C          33.8056  -49.7212  -54.5255 C.2       3 UNK         0.4908 
     56 O          34.1721  -50.4833  -55.4202 O.2       3 UNK        -0.5102 
     57 CA         34.8644  -48.8510  -53.8155 C.3       3 UNK         0.0241 
     58 CB         35.3108  -47.6995  -54.7318 C.3       3 UNK        -0.1971 
     59 N          34.4088  -48.2867  -52.5429 N.am      3 UNK        -0.4139 
     60 C          34.1523  -48.9877  -51.4285 C.2       2 UNK         0.5016 
     61 O          34.3932  -50.1887  -51.3052 O.2       2 UNK        -0.5319 
     62 CA         33.4792  -48.2305  -50.2662 C.3       2 UNK         0.0286 
     63 CB         34.5061  -47.9101  -49.1675 C.3       2 UNK        -0.1963 
     64 N          32.8024  -46.9885  -50.6662 N.am      2 UNK        -0.4790 
     65 C          31.7638  -46.9035  -51.5110 C.2       1 UNK         0.5024 
     66 O          31.2487  -47.8801  -52.0616 O.2       1 UNK        -0.4888 
     67 H67        27.2873  -45.4781  -52.3204 H         1 UNK         0.0892 
     68 H68        27.0512  -46.4788  -50.9002 H         1 UNK         0.0892 
     69 H69        26.9656  -44.7286  -50.7670 H         1 UNK         0.0892 
     70 H70        29.4523  -45.5374  -52.9131 H         1 UNK         0.3107 
     71 H71        31.5509  -44.8102  -51.0436 H         1 UNK         0.0773 
     72 H72        31.4577  -44.0228  -53.4441 H         1 UNK         0.0680 
     73 H73        31.7784  -45.6467  -53.9928 H         1 UNK         0.0680 
     74 H74        33.4352  -42.3106  -53.5184 H         1 UNK         0.0650 
     75 H75        35.0167  -42.8756  -54.0041 H         1 UNK         0.0650 
     76 H76        35.0546  -44.7073  -55.9408 H         1 UNK         0.1397 
     77 H77        32.1231  -44.0063  -58.9930 H         1 UNK         0.1363 
     78 H78        31.7503  -42.0794  -55.1866 H         1 UNK         0.1355 
     79 H79        30.5182  -42.0750  -58.6153 H         1 UNK         0.0707 
     80 H80        30.1803  -41.5388  -56.9868 H         1 UNK         0.0707 
     81 H81        29.5623  -43.0470  -55.1413 H         1 UNK         0.1034 
     82 H82        29.3931  -44.7654  -55.3092 H         1 UNK         0.1034 
     83 H83        27.5393  -43.7004  -54.0542 H         1 UNK         0.0482 
     84 H84        25.4454  -43.1023  -56.7304 H         1 UNK         0.3460 
     85 H85        25.4173  -41.3653  -56.5509 H         1 UNK         0.3460 
     86 H86        27.1311  -45.4996  -56.2000 H         1 UNK         0.2989 
     87 H87        24.1202  -46.8162  -54.7508 H         1 UNK         0.0559 
     88 H88        23.4969  -45.5701  -56.8136 H         1 UNK         0.0848 
     89 H89        23.7350  -47.2757  -57.1524 H         1 UNK         0.0848 
     90 H90        24.9713  -46.1060  -57.6079 H         1 UNK         0.0848 
     91 H91        26.1498  -47.9827  -56.4132 H         1 UNK         0.3144 
     92 H92        28.4550  -48.7143  -54.6188 H         1 UNK         0.0727 
     93 H93        28.3486  -51.0226  -53.5833 H         1 UNK         0.0790 
     94 H94        26.6378  -50.7633  -53.2526 H         1 UNK         0.0790 
     95 H95        27.8481  -49.7442  -52.4888 H         1 UNK         0.0790 
     96 H96        28.2048  -49.7799  -56.5112 H         1 UNK         0.3215 
     97 H97        27.3134  -52.1332  -57.7100 H         1 UNK         0.0863 
     98 H98        25.4562  -52.1674  -59.3995 H         1 UNK         0.0808 
     99 H99        24.5515  -51.0089  -58.4244 H         1 UNK         0.0808 
    100 H100       24.8944  -52.6135  -57.7975 H         1 UNK         0.0808 
    101 H101       28.1622  -50.5822  -59.0522 H         1 UNK         0.3118 
    102 H102       27.7219  -48.5716  -60.8056 H         1 UNK         0.0546 
    103 H103       27.3500  -46.2528  -58.8285 H         1 UNK         0.0828 
    104 H104       26.3396  -46.5976  -60.2235 H         1 UNK         0.0828 
    105 H105       28.0099  -46.1102  -60.4547 H         1 UNK         0.0828 
    106 H106       29.8234  -48.6216  -60.0870 H         1 UNK         0.3005 
    107 H107       31.5127  -49.0528  -58.6621 H         1 UNK         0.1257 
    108 H108       31.7339  -46.5985  -59.2045 H         1 UNK         0.0775 
    109 H109       31.6232  -46.2347  -57.4941 H         1 UNK         0.0775 
    110 H110       35.4280  -45.4330  -58.3511 H         1 UNK         0.0840 
    111 H111       34.1392  -45.2688  -59.5181 H         1 UNK         0.0840 
    112 H112       32.0242  -48.2354  -56.0097 H         1 UNK         0.2987 
    113 H113       30.5122  -49.9228  -54.0602 H         1 UNK         0.0785 
    114 H114       31.6693  -52.0174  -53.3236 H         1 UNK         0.0798 
    115 H115       32.2220  -52.2895  -54.9762 H         1 UNK         0.0798 
    116 H116       30.5062  -52.3181  -54.6034 H         1 UNK         0.0798 
    117 H117       32.3220  -48.9334  -53.3828 H         1 UNK         0.3079 
    118 H118       35.7284  -49.4876  -53.6136 H         1 UNK         0.0794 
    119 H119       35.7035  -48.0803  -55.6758 H         1 UNK         0.0786 
    120 H120       36.0997  -47.1047  -54.2709 H         1 UNK         0.0786 
    121 H121       34.4825  -47.0311  -54.9709 H         1 UNK         0.0786 
    122 H122       34.2014  -47.2978  -52.5344 H         1 UNK         0.3032 
    123 H123       32.7232  -48.8994  -49.8479 H         1 UNK         0.1094 
    124 H124       35.2762  -47.2236  -49.5223 H         1 UNK         0.0794 
    125 H125       34.0293  -47.4608  -48.2960 H         1 UNK         0.0794 
    126 H126       35.0098  -48.8159  -48.8260 H         1 UNK         0.0794 
    127 H127       33.1783  -46.1325  -50.2820 H         1 UNK         0.3016 
@<TRIPOS>BOND
     1    1    2 1    
     2    1   67 1    
     3    1   68 1    
     4    1   69 1    
     5    2    3 2    
     6    2    4 am   BACKBONE|DICT|INTERRES
     7    4    5 1    
     8    4   70 1    
     9    5    6 1    
    10    5   65 1    
    11    5   71 1    
    12    6    7 1    
    13    6   72 1    
    14    6   73 1    
    15    7    8 1    
    16    8    9 1    
    17    8   74 1    
    18    8   75 1    
    19    9   10 ar   
    20    9   14 ar   
    21   10   11 ar   
    22   10   76 1    
    23   11   12 ar   
    24   11   48 1    
    25   12   13 ar   
    26   12   77 1    
    27   13   14 ar   
    28   13   15 1    
    29   14   78 1    
    30   15   16 1    
    31   15   79 1    
    32   15   80 1    
    33   16   17 1    
    34   17   18 1    
    35   17   81 1    
    36   17   82 1    
    37   18   19 1    
    38   18   22 1    
    39   18   83 1    
    40   19   20 am   BACKBONE|DICT|INTERRES
    41   19   21 2    
    42   20   84 1    
    43   20   85 1    
    44   22   23 am   BACKBONE|DICT|INTERRES
    45   22   86 1    
    46   23   24 2    
    47   23   25 1    
    48   25   26 1    
    49   25   27 1    
    50   25   87 1    
    51   26   88 1    
    52   26   89 1    
    53   26   90 1    
    54   27   28 am   BACKBONE|DICT|INTERRES
    55   27   91 1    
    56   28   29 2    
    57   28   30 1    
    58   30   31 1    
    59   30   32 1    
    60   30   92 1    
    61   31   93 1    
    62   31   94 1    
    63   31   95 1    
    64   32   33 am   BACKBONE|DICT|INTERRES
    65   32   96 1    
    66   33   34 2    
    67   33   35 1    
    68   35   36 1    
    69   35   37 1    
    70   35   97 1    
    71   36   98 1    
    72   36   99 1    
    73   36  100 1    
    74   37   38 am   BACKBONE|DICT|INTERRES
    75   37  101 1    
    76   38   39 2    
    77   38   40 1    
    78   40   41 1    
    79   40   42 1    
    80   40  102 1    
    81   41  103 1    
    82   41  104 1    
    83   41  105 1    
    84   42   43 am   BACKBONE|DICT|INTERRES
    85   42  106 1    
    86   43   44 2    
    87   43   45 1    
    88   45   46 1    
    89   45   49 1    
    90   45  107 1    
    91   46   47 1    
    92   46  108 1    
    93   46  109 1    
    94   47   48 1    
    95   48  110 1    
    96   48  111 1    
    97   49   50 am   BACKBONE|DICT|INTERRES
    98   49  112 1    
    99   50   51 2    
   100   50   52 1    
   101   52   53 1    
   102   52   54 1    
   103   52  113 1    
   104   53  114 1    
   105   53  115 1    
   106   53  116 1    
   107   54   55 am   BACKBONE|DICT|INTERRES
   108   54  117 1    
   109   55   56 2    
   110   55   57 1    
   111   57   58 1    
   112   57   59 1    
   113   57  118 1    
   114   58  119 1    
   115   58  120 1    
   116   58  121 1    
   117   59   60 am   BACKBONE|DICT|INTERRES
   118   59  122 1    
   119   60   61 2    
   120   60   62 1    
   121   62   63 1    
   122   62   64 1    
   123   62  123 1    
   124   63  124 1    
   125   63  125 1    
   126   63  126 1    
   127   64   65 am   BACKBONE|DICT|INTERRES
   128   64  127 1    
   129   65   66 2    
@<TRIPOS>SUBSTRUCTURE
     1 UNK         1 GROUP             0       ****    0 ROOT    
