@<TRIPOS>MOLECULE
3R134
127   129    1
SMALL
USER_CHARGES


@<TRIPOS>ATOM
      1 CA         35.4619  -42.8973  -49.1318 C.3       0 UNK        -0.1968 
      2 C          34.9133  -43.8823  -50.1540 C.2       0 UNK         0.4852 
      3 O          35.6909  -44.5173  -50.8683 O.2       0 UNK        -0.5359 
      4 N          33.5823  -44.0054  -50.2340 N.am      1 UNK        -0.4300 
      5 CA         32.8743  -44.9335  -51.1217 C.3       1 UNK         0.0863 
      6 C6         31.3677  -44.5847  -51.2380 C.3       11 UNK        -0.0953 
      7 S7         31.0719  -42.8775  -51.8156 S.3       11 UNK        -0.2369 
      8 C8         29.9100  -43.1321  -53.2046 C.3       11 UNK         0.0226 
      9 C9         30.5081  -43.6622  -54.5110 C.ar      11 UNK        -0.0699 
     10 C10        31.8740  -43.9238  -54.6832 C.ar      11 UNK        -0.0804 
     11 C11        32.3642  -44.4178  -55.8950 C.ar      11 UNK        -0.0871 
     12 C12        31.4854  -44.6131  -56.9631 C.ar      11 UNK        -0.1008 
     13 C13        30.1191  -44.3651  -56.8093 C.ar      11 UNK        -0.0735 
     14 C14        29.6407  -43.8923  -55.5830 C.ar      11 UNK        -0.0945 
     15 C15        29.1454  -44.6843  -57.9344 C.3       11 UNK         0.0169 
     16 S16        28.2839  -43.1973  -58.5238 S.3       11 UNK        -0.2669 
     17 C17        26.8096  -43.9377  -59.3044 C.3       11 UNK        -0.0850 
     18 CA         25.5766  -43.9063  -58.3587 C.3       10 UNK         0.0855 
     19 C          24.2365  -44.1245  -59.1224 C.2       10 UNK         0.5543 
     20 N          23.2808  -44.8860  -58.6025 N.am      10 UNK        -0.7343 
     21 O          24.0421  -43.5694  -60.2012 O.2       10 UNK        -0.5027 
     22 N          25.7441  -44.8387  -57.2318 N.am      10 UNK        -0.4495 
     23 C          25.6536  -44.5192  -55.9335 C.2       10 UNK         0.4903 
     24 O          25.5142  -43.3661  -55.5234 O.2       10 UNK        -0.4860 
     25 CA         25.7319  -45.6810  -54.9137 C.3       9 UNK         0.0227 
     26 CB         25.0282  -45.3492  -53.5817 C.3       9 UNK        -0.1964 
     27 N          25.2571  -46.9707  -55.4344 N.am      9 UNK        -0.4231 
     28 C          24.0680  -47.2305  -56.0049 C.2       9 UNK         0.5014 
     29 O          23.1473  -46.4134  -56.0625 O.2       9 UNK        -0.5270 
     30 CA         23.9051  -48.6081  -56.6866 C.3       8 UNK         0.0284 
     31 CB         22.8926  -48.5705  -57.8512 C.3       8 UNK        -0.1977 
     32 N          25.1747  -49.1966  -57.1394 N.am      8 UNK        -0.4342 
     33 C          26.0876  -48.6369  -57.9485 C.2       8 UNK         0.5039 
     34 O          25.9691  -47.5262  -58.4726 O.2       8 UNK        -0.5547 
     35 CA         27.4102  -49.4048  -58.0984 C.3       7 UNK         0.0281 
     36 CB         27.8505  -49.4773  -59.5701 C.3       7 UNK        -0.1963 
     37 N          28.4691  -48.7669  -57.3140 N.am      7 UNK        -0.4444 
     38 C          28.4669  -48.5484  -55.9934 C.2       7 UNK         0.5104 
     39 O          27.5647  -48.9290  -55.2442 O.2       7 UNK        -0.5100 
     40 CA         29.6442  -47.7324  -55.4234 C.3       6 UNK         0.0396 
     41 CB         29.5963  -47.6144  -53.8897 C.3       6 UNK        -0.1801 
     42 N          30.9755  -48.1985  -55.8310 N.am      6 UNK        -0.4747 
     43 C          31.5222  -48.0694  -57.0505 C.2       6 UNK         0.5012 
     44 O          30.9048  -47.6299  -58.0222 O.2       6 UNK        -0.5003 
     45 CA         32.9825  -48.5110  -57.2532 C.3       5 UNK         0.0782 
     46 C46        33.9770  -47.3209  -57.2369 C.3       11 UNK        -0.0868 
     47 S47        34.1872  -46.4908  -55.6189 S.3       11 UNK        -0.2515 
     48 C48        33.8431  -44.7475  -56.0355 C.3       11 UNK         0.0199 
     49 N          33.3744  -49.5947  -56.3460 N.am      5 UNK        -0.4607 
     50 C          33.9516  -50.7369  -56.7478 C.2       4 UNK         0.5031 
     51 O          34.2458  -50.9770  -57.9195 O.2       4 UNK        -0.5119 
     52 CA         34.2603  -51.8076  -55.6825 C.3       4 UNK         0.0263 
     53 CB         35.7312  -51.7150  -55.2447 C.3       4 UNK        -0.1967 
     54 N          33.4056  -51.7256  -54.4985 N.am      4 UNK        -0.4237 
     55 C          32.0793  -51.9189  -54.4808 C.2       3 UNK         0.4908 
     56 O          31.4346  -52.3232  -55.4487 O.2       3 UNK        -0.5102 
     57 CA         31.3360  -51.5784  -53.1732 C.3       3 UNK         0.0241 
     58 CB         30.9102  -52.8659  -52.4483 C.3       3 UNK        -0.1971 
     59 N          32.0732  -50.7204  -52.2320 N.am      3 UNK        -0.4139 
     60 C          32.5428  -49.4933  -52.4949 C.2       2 UNK         0.5016 
     61 O          32.4870  -48.9599  -53.6063 O.2       2 UNK        -0.5319 
     62 CA         33.2352  -48.7598  -51.3455 C.3       2 UNK         0.0286 
     63 CB         34.7171  -49.1640  -51.2536 C.3       2 UNK        -0.1963 
     64 N          33.1331  -47.3246  -51.5910 N.am      2 UNK        -0.4790 
     65 C          33.0510  -46.3878  -50.6417 C.2       1 UNK         0.5024 
     66 O          33.0762  -46.6362  -49.4330 O.2       1 UNK        -0.4888 
     67 H67        36.0629  -42.1363  -49.6289 H         1 UNK         0.0892 
     68 H68        34.6665  -42.3947  -48.5816 H         1 UNK         0.0892 
     69 H69        36.0952  -43.4168  -48.4131 H         1 UNK         0.0892 
     70 H70        32.9941  -43.4662  -49.6153 H         1 UNK         0.3107 
     71 H71        33.3312  -44.8558  -52.1093 H         1 UNK         0.0773 
     72 H72        30.8727  -45.2786  -51.9187 H         1 UNK         0.0680 
     73 H73        30.8699  -44.7014  -50.2733 H         1 UNK         0.0680 
     74 H74        29.4354  -42.1729  -53.4156 H         1 UNK         0.0650 
     75 H75        29.1129  -43.8011  -52.8763 H         1 UNK         0.0650 
     76 H76        32.5713  -43.7487  -53.8800 H         1 UNK         0.1397 
     77 H77        31.8576  -44.9980  -57.9022 H         1 UNK         0.1363 
     78 H78        28.5821  -43.7050  -55.4646 H         1 UNK         0.1355 
     79 H79        28.4218  -45.4142  -57.5708 H         1 UNK         0.0707 
     80 H80        29.6568  -45.1552  -58.7754 H         1 UNK         0.0707 
     81 H81        26.6189  -43.3631  -60.2126 H         1 UNK         0.1034 
     82 H82        27.0206  -44.9569  -59.6343 H         1 UNK         0.1034 
     83 H83        25.4947  -42.8880  -57.9751 H         1 UNK         0.0482 
     84 H84        23.3915  -45.3275  -57.6959 H         1 UNK         0.3460 
     85 H85        22.4194  -45.0017  -59.1112 H         1 UNK         0.3460 
     86 H86        25.8221  -45.8163  -57.5012 H         1 UNK         0.2989 
     87 H87        26.7930  -45.8165  -54.7009 H         1 UNK         0.0559 
     88 H88        23.9661  -45.1492  -53.7270 H         1 UNK         0.0848 
     89 H89        25.4653  -44.4660  -53.1143 H         1 UNK         0.0848 
     90 H90        25.1210  -46.1685  -52.8689 H         1 UNK         0.0848 
     91 H91        25.9441  -47.7196  -55.4308 H         1 UNK         0.3144 
     92 H92        23.5089  -49.2770  -55.9213 H         1 UNK         0.0727 
     93 H93        23.2087  -47.8841  -58.6376 H         1 UNK         0.0790 
     94 H94        21.9092  -48.2450  -57.5098 H         1 UNK         0.0790 
     95 H95        22.7669  -49.5562  -58.2989 H         1 UNK         0.0790 
     96 H96        25.4125  -50.0814  -56.7106 H         1 UNK         0.3215 
     97 H97        27.2807  -50.4239  -57.7285 H         1 UNK         0.0863 
     98 H98        28.7589  -50.0692  -59.6839 H         1 UNK         0.0808 
     99 H99        28.0432  -48.4862  -59.9837 H         1 UNK         0.0808 
    100 H100       27.0796  -49.9432  -60.1853 H         1 UNK         0.0808 
    101 H101       29.2559  -48.3803  -57.8314 H         1 UNK         0.3118 
    102 H102       29.5181  -46.7269  -55.8148 H         1 UNK         0.0546 
    103 H103       30.4081  -46.9889  -53.5200 H         1 UNK         0.0828 
    104 H104       29.6752  -48.5895  -53.4088 H         1 UNK         0.0828 
    105 H105       28.6627  -47.1598  -53.5568 H         1 UNK         0.0828 
    106 H106       31.5600  -48.5435  -55.0723 H         1 UNK         0.3005 
    107 H107       32.9916  -48.8978  -58.2751 H         1 UNK         0.1257 
    108 H108       33.6892  -46.5906  -57.9944 H         1 UNK         0.0775 
    109 H109       34.9607  -47.6770  -57.5463 H         1 UNK         0.0775 
    110 H110       34.4264  -44.1127  -55.3666 H         1 UNK         0.0840 
    111 H111       34.1954  -44.5171  -57.0419 H         1 UNK         0.0840 
    112 H112       33.1778  -49.4522  -55.3601 H         1 UNK         0.2987 
    113 H113       34.0980  -52.7841  -56.1437 H         1 UNK         0.0785 
    114 H114       36.3997  -51.8036  -56.1024 H         1 UNK         0.0798 
    115 H115       35.9912  -52.5144  -54.5506 H         1 UNK         0.0798 
    116 H116       35.9487  -50.7623  -54.7597 H         1 UNK         0.0798 
    117 H117       33.8418  -51.3972  -53.6502 H         1 UNK         0.3079 
    118 H118       30.4330  -51.0364  -53.4621 H         1 UNK         0.0794 
    119 H119       31.7724  -53.4388  -52.1044 H         1 UNK         0.0786 
    120 H120       30.3306  -53.5138  -53.1075 H         1 UNK         0.0786 
    121 H121       30.2836  -52.6472  -51.5833 H         1 UNK         0.0786 
    122 H122       32.1899  -51.0891  -51.2986 H         1 UNK         0.3032 
    123 H123       32.7229  -49.0140  -50.4144 H         1 UNK         0.1094 
    124 H124       34.8247  -50.2332  -51.0671 H         1 UNK         0.0794 
    125 H125       35.2540  -48.9350  -52.1754 H         1 UNK         0.0794 
    126 H126       35.2191  -48.6427  -50.4382 H         1 UNK         0.0794 
    127 H127       33.0523  -47.0776  -52.5707 H         1 UNK         0.3016 
@<TRIPOS>BOND
     1    1    2 1    
     2    1   67 1    
     3    1   68 1    
     4    1   69 1    
     5    2    3 2    
     6    2    4 am   BACKBONE|DICT|INTERRES
     7    4    5 1    
     8    4   70 1    
     9    5    6 1    
    10    5   65 1    
    11    5   71 1    
    12    6    7 1    
    13    6   72 1    
    14    6   73 1    
    15    7    8 1    
    16    8    9 1    
    17    8   74 1    
    18    8   75 1    
    19    9   10 ar   
    20    9   14 ar   
    21   10   11 ar   
    22   10   76 1    
    23   11   12 ar   
    24   11   48 1    
    25   12   13 ar   
    26   12   77 1    
    27   13   14 ar   
    28   13   15 1    
    29   14   78 1    
    30   15   16 1    
    31   15   79 1    
    32   15   80 1    
    33   16   17 1    
    34   17   18 1    
    35   17   81 1    
    36   17   82 1    
    37   18   19 1    
    38   18   22 1    
    39   18   83 1    
    40   19   20 am   BACKBONE|DICT|INTERRES
    41   19   21 2    
    42   20   84 1    
    43   20   85 1    
    44   22   23 am   BACKBONE|DICT|INTERRES
    45   22   86 1    
    46   23   24 2    
    47   23   25 1    
    48   25   26 1    
    49   25   27 1    
    50   25   87 1    
    51   26   88 1    
    52   26   89 1    
    53   26   90 1    
    54   27   28 am   BACKBONE|DICT|INTERRES
    55   27   91 1    
    56   28   29 2    
    57   28   30 1    
    58   30   31 1    
    59   30   32 1    
    60   30   92 1    
    61   31   93 1    
    62   31   94 1    
    63   31   95 1    
    64   32   33 am   BACKBONE|DICT|INTERRES
    65   32   96 1    
    66   33   34 2    
    67   33   35 1    
    68   35   36 1    
    69   35   37 1    
    70   35   97 1    
    71   36   98 1    
    72   36   99 1    
    73   36  100 1    
    74   37   38 am   BACKBONE|DICT|INTERRES
    75   37  101 1    
    76   38   39 2    
    77   38   40 1    
    78   40   41 1    
    79   40   42 1    
    80   40  102 1    
    81   41  103 1    
    82   41  104 1    
    83   41  105 1    
    84   42   43 am   BACKBONE|DICT|INTERRES
    85   42  106 1    
    86   43   44 2    
    87   43   45 1    
    88   45   46 1    
    89   45   49 1    
    90   45  107 1    
    91   46   47 1    
    92   46  108 1    
    93   46  109 1    
    94   47   48 1    
    95   48  110 1    
    96   48  111 1    
    97   49   50 am   BACKBONE|DICT|INTERRES
    98   49  112 1    
    99   50   51 2    
   100   50   52 1    
   101   52   53 1    
   102   52   54 1    
   103   52  113 1    
   104   53  114 1    
   105   53  115 1    
   106   53  116 1    
   107   54   55 am   BACKBONE|DICT|INTERRES
   108   54  117 1    
   109   55   56 2    
   110   55   57 1    
   111   57   58 1    
   112   57   59 1    
   113   57  118 1    
   114   58  119 1    
   115   58  120 1    
   116   58  121 1    
   117   59   60 am   BACKBONE|DICT|INTERRES
   118   59  122 1    
   119   60   61 2    
   120   60   62 1    
   121   62   63 1    
   122   62   64 1    
   123   62  123 1    
   124   63  124 1    
   125   63  125 1    
   126   63  126 1    
   127   64   65 am   BACKBONE|DICT|INTERRES
   128   64  127 1    
   129   65   66 2    
@<TRIPOS>SUBSTRUCTURE
     1 UNK         1 GROUP             0       ****    0 ROOT    
