@<TRIPOS>MOLECULE
3R134
127   129    1
SMALL
USER_CHARGES


@<TRIPOS>ATOM
      1 CA         30.0031  -46.2767  -52.6141 C.3       0 UNK        -0.1968 
      2 C          31.3521  -45.9770  -51.9772 C.2       0 UNK         0.4852 
      3 O          31.6901  -46.5913  -50.9651 O.2       0 UNK        -0.5359 
      4 N          32.1333  -45.0608  -52.5720 N.am      1 UNK        -0.4300 
      5 CA         33.4239  -44.5725  -52.0583 C.3       1 UNK         0.0863 
      6 C6         34.0277  -43.4497  -52.9395 C.3       11 UNK        -0.0953 
      7 S7         32.8936  -42.0418  -53.2035 S.3       11 UNK        -0.2369 
      8 C8         33.2569  -41.5677  -54.9272 C.3       11 UNK         0.0226 
      9 C9         32.5532  -42.4762  -55.9247 C.ar      11 UNK        -0.0699 
     10 C10        33.2036  -43.6036  -56.4327 C.ar      11 UNK        -0.0804 
     11 C11        32.5373  -44.4777  -57.2937 C.ar      11 UNK        -0.0871 
     12 C12        31.2273  -44.1922  -57.6894 C.ar      11 UNK        -0.1008 
     13 C13        30.5702  -43.0577  -57.2060 C.ar      11 UNK        -0.0735 
     14 C14        31.2428  -42.1990  -56.3282 C.ar      11 UNK        -0.0945 
     15 C15        29.1294  -42.7844  -57.6273 C.3       11 UNK         0.0169 
     16 S16        28.0119  -42.4898  -56.2169 S.3       11 UNK        -0.2669 
     17 C17        28.2693  -43.9876  -55.1981 C.3       11 UNK        -0.0850 
     18 CA         26.9669  -44.6291  -54.6523 C.3       10 UNK         0.0855 
     19 C          26.2159  -43.6957  -53.6565 C.2       10 UNK         0.5543 
     20 N          26.7058  -43.5816  -52.4289 N.am      10 UNK        -0.7343 
     21 O          25.2180  -43.0564  -53.9864 O.2       10 UNK        -0.5027 
     22 N          26.1320  -45.1447  -55.7443 N.am      10 UNK        -0.4495 
     23 C          25.0425  -45.9060  -55.5970 C.2       10 UNK         0.4903 
     24 O          24.6346  -46.3182  -54.5107 O.2       10 UNK        -0.4860 
     25 CA         24.2863  -46.3032  -56.8764 C.3       9 UNK         0.0227 
     26 CB         23.4440  -45.1337  -57.4238 C.3       9 UNK        -0.1964 
     27 N          25.1441  -46.9033  -57.9071 N.am      9 UNK        -0.4231 
     28 C          26.0977  -46.3328  -58.6592 C.2       9 UNK         0.5014 
     29 O          26.3742  -45.1326  -58.6182 O.2       9 UNK        -0.5270 
     30 CA         26.8933  -47.2757  -59.5823 C.3       8 UNK         0.0284 
     31 CB         28.2165  -46.6482  -60.0619 C.3       8 UNK        -0.1977 
     32 N          27.1893  -48.5251  -58.8796 N.am      8 UNK        -0.4342 
     33 C          26.5780  -49.7023  -59.0760 C.2       8 UNK         0.5039 
     34 O          25.7365  -49.8934  -59.9539 O.2       8 UNK        -0.5547 
     35 CA         26.9278  -50.8563  -58.1130 C.3       7 UNK         0.0281 
     36 CB         27.9514  -51.8016  -58.7611 C.3       7 UNK        -0.1963 
     37 N          27.4432  -50.4008  -56.8177 N.am      7 UNK        -0.4444 
     38 C          26.7393  -49.6885  -55.9224 C.2       7 UNK         0.5104 
     39 O          25.5330  -49.4706  -56.0319 O.2       7 UNK        -0.5100 
     40 CA         27.5110  -49.0618  -54.7413 C.3       6 UNK         0.0396 
     41 CB         27.2606  -49.8569  -53.4519 C.3       6 UNK        -0.1801 
     42 N          28.9570  -48.9421  -54.9682 N.am      6 UNK        -0.4747 
     43 C          29.5203  -48.2356  -55.9633 C.2       6 UNK         0.5012 
     44 O          28.8692  -47.5276  -56.7302 O.2       6 UNK        -0.5003 
     45 CA         31.0431  -48.3607  -56.1924 C.3       5 UNK         0.0782 
     46 C46        31.7532  -47.0890  -55.6865 C.3       11 UNK        -0.0868 
     47 S47        33.4455  -46.9220  -56.3431 S.3       11 UNK        -0.2515 
     48 C48        33.2078  -45.7690  -57.7387 C.3       11 UNK         0.0199 
     49 N          31.6463  -49.5514  -55.5907 N.am      5 UNK        -0.4607 
     50 C          31.2950  -50.8291  -55.7777 C.2       4 UNK         0.5031 
     51 O          30.4410  -51.1966  -56.5847 O.2       4 UNK        -0.5119 
     52 CA         31.9621  -51.8521  -54.8397 C.3       4 UNK         0.0263 
     53 CB         33.1657  -52.5092  -55.5322 C.3       4 UNK        -0.1967 
     54 N          32.3965  -51.2724  -53.5591 N.am      4 UNK        -0.4237 
     55 C          31.6011  -50.6867  -52.6520 C.2       3 UNK         0.4908 
     56 O          30.3819  -50.5829  -52.7850 O.2       3 UNK        -0.5102 
     57 CA         32.2765  -50.0580  -51.4210 C.3       3 UNK         0.0241 
     58 CB         32.8376  -51.1331  -50.4692 C.3       3 UNK        -0.1971 
     59 N          33.2793  -49.0312  -51.7469 N.am      3 UNK        -0.4139 
     60 C          34.4635  -49.1797  -52.3640 C.2       2 UNK         0.5016 
     61 O          34.8876  -50.2652  -52.7652 O.2       2 UNK        -0.5319 
     62 CA         35.3034  -47.9092  -52.5974 C.3       2 UNK         0.0286 
     63 CB         36.1742  -48.0160  -53.8635 C.3       2 UNK        -0.1963 
     64 N          34.4574  -46.7153  -52.6961 N.am      2 UNK        -0.4790 
     65 C          34.4709  -45.6873  -51.8355 C.2       1 UNK         0.5024 
     66 O          35.2474  -45.6019  -50.8833 O.2       1 UNK        -0.4888 
     67 H67        29.2005  -45.8948  -51.9845 H         1 UNK         0.0892 
     68 H68        29.8681  -47.3535  -52.7141 H         1 UNK         0.0892 
     69 H69        29.9092  -45.8304  -53.6021 H         1 UNK         0.0892 
     70 H70        31.8003  -44.5760  -53.3934 H         1 UNK         0.3107 
     71 H71        33.2170  -44.1440  -51.0752 H         1 UNK         0.0773 
     72 H72        34.3381  -43.8574  -53.9003 H         1 UNK         0.0680 
     73 H73        34.9337  -43.0527  -52.4772 H         1 UNK         0.0680 
     74 H74        32.9329  -40.5373  -55.0810 H         1 UNK         0.0650 
     75 H75        34.3355  -41.5741  -55.0922 H         1 UNK         0.0650 
     76 H76        34.2173  -43.8280  -56.1322 H         1 UNK         0.1397 
     77 H77        30.7068  -44.8723  -58.3498 H         1 UNK         0.1363 
     78 H78        30.7356  -41.3265  -55.9392 H         1 UNK         0.1355 
     79 H79        28.7312  -43.6150  -58.2129 H         1 UNK         0.0707 
     80 H80        29.1119  -41.9107  -58.2798 H         1 UNK         0.0707 
     81 H81        28.9364  -43.7194  -54.3775 H         1 UNK         0.1034 
     82 H82        28.8100  -44.7333  -55.7836 H         1 UNK         0.1034 
     83 H83        27.2648  -45.5087  -54.0782 H         1 UNK         0.0482 
     84 H84        26.2385  -42.9728  -51.7752 H         1 UNK         0.3460 
     85 H85        27.5230  -44.0913  -52.1366 H         1 UNK         0.3460 
     86 H86        26.3800  -44.8516  -56.6848 H         1 UNK         0.2989 
     87 H87        23.5901  -47.0941  -56.5922 H         1 UNK         0.0559 
     88 H88        24.0592  -44.2795  -57.7079 H         1 UNK         0.0848 
     89 H89        22.7374  -44.7821  -56.6710 H         1 UNK         0.0848 
     90 H90        22.8651  -45.4355  -58.2965 H         1 UNK         0.0848 
     91 H91        25.0507  -47.9074  -57.9866 H         1 UNK         0.3144 
     92 H92        26.2720  -47.4672  -60.4594 H         1 UNK         0.0727 
     93 H93        28.0338  -45.7412  -60.6396 H         1 UNK         0.0790 
     94 H94        28.7707  -47.3336  -60.7031 H         1 UNK         0.0790 
     95 H95        28.8602  -46.3776  -59.2242 H         1 UNK         0.0790 
     96 H96        27.8275  -48.4270  -58.0942 H         1 UNK         0.3215 
     97 H97        26.0097  -51.4181  -57.9281 H         1 UNK         0.0863 
     98 H98        28.1654  -52.6565  -58.1193 H         1 UNK         0.0808 
     99 H99        28.8948  -51.2941  -58.9672 H         1 UNK         0.0808 
    100 H100       27.5773  -52.1929  -59.7082 H         1 UNK         0.0808 
    101 H101       28.4290  -50.5662  -56.6402 H         1 UNK         0.3118 
    102 H102       27.1182  -48.0532  -54.5996 H         1 UNK         0.0546 
    103 H103       26.1934  -49.9275  -53.2370 H         1 UNK         0.0828 
    104 H104       27.7323  -49.3792  -52.5931 H         1 UNK         0.0828 
    105 H105       27.6485  -50.8737  -53.5243 H         1 UNK         0.0828 
    106 H106       29.5499  -49.5089  -54.3697 H         1 UNK         0.3005 
    107 H107       31.1793  -48.4366  -57.2735 H         1 UNK         0.1257 
    108 H108       31.8299  -47.1195  -54.6014 H         1 UNK         0.0775 
    109 H109       31.1744  -46.1941  -55.9096 H         1 UNK         0.0775 
    110 H110       34.1777  -45.5405  -58.1827 H         1 UNK         0.0840 
    111 H111       32.6232  -46.2652  -58.5150 H         1 UNK         0.0840 
    112 H112       32.3824  -49.3744  -54.9249 H         1 UNK         0.2987 
    113 H113       31.2218  -52.6242  -54.6207 H         1 UNK         0.0785 
    114 H114       32.8716  -52.9638  -56.4795 H         1 UNK         0.0798 
    115 H115       33.5958  -53.2983  -54.9152 H         1 UNK         0.0798 
    116 H116       33.9526  -51.7847  -55.7469 H         1 UNK         0.0798 
    117 H117       33.3979  -51.2391  -53.3771 H         1 UNK         0.3079 
    118 H118       31.4917  -49.5289  -50.8772 H         1 UNK         0.0794 
    119 H119       33.6342  -51.7192  -50.9282 H         1 UNK         0.0786 
    120 H120       32.0553  -51.8317  -50.1694 H         1 UNK         0.0786 
    121 H121       33.2359  -50.6844  -49.5591 H         1 UNK         0.0786 
    122 H122       33.0126  -48.0914  -51.4678 H         1 UNK         0.3032 
    123 H123       35.9741  -47.8311  -51.7389 H         1 UNK         0.1094 
    124 H124       36.9015  -48.8237  -53.7715 H         1 UNK         0.0794 
    125 H125       35.5755  -48.2197  -54.7511 H         1 UNK         0.0794 
    126 H126       36.7346  -47.0977  -54.0393 H         1 UNK         0.0794 
    127 H127       33.7989  -46.6910  -53.4617 H         1 UNK         0.3016 
@<TRIPOS>BOND
     1    1    2 1    
     2    1   67 1    
     3    1   68 1    
     4    1   69 1    
     5    2    3 2    
     6    2    4 am   BACKBONE|DICT|INTERRES
     7    4    5 1    
     8    4   70 1    
     9    5    6 1    
    10    5   65 1    
    11    5   71 1    
    12    6    7 1    
    13    6   72 1    
    14    6   73 1    
    15    7    8 1    
    16    8    9 1    
    17    8   74 1    
    18    8   75 1    
    19    9   10 ar   
    20    9   14 ar   
    21   10   11 ar   
    22   10   76 1    
    23   11   12 ar   
    24   11   48 1    
    25   12   13 ar   
    26   12   77 1    
    27   13   14 ar   
    28   13   15 1    
    29   14   78 1    
    30   15   16 1    
    31   15   79 1    
    32   15   80 1    
    33   16   17 1    
    34   17   18 1    
    35   17   81 1    
    36   17   82 1    
    37   18   19 1    
    38   18   22 1    
    39   18   83 1    
    40   19   20 am   BACKBONE|DICT|INTERRES
    41   19   21 2    
    42   20   84 1    
    43   20   85 1    
    44   22   23 am   BACKBONE|DICT|INTERRES
    45   22   86 1    
    46   23   24 2    
    47   23   25 1    
    48   25   26 1    
    49   25   27 1    
    50   25   87 1    
    51   26   88 1    
    52   26   89 1    
    53   26   90 1    
    54   27   28 am   BACKBONE|DICT|INTERRES
    55   27   91 1    
    56   28   29 2    
    57   28   30 1    
    58   30   31 1    
    59   30   32 1    
    60   30   92 1    
    61   31   93 1    
    62   31   94 1    
    63   31   95 1    
    64   32   33 am   BACKBONE|DICT|INTERRES
    65   32   96 1    
    66   33   34 2    
    67   33   35 1    
    68   35   36 1    
    69   35   37 1    
    70   35   97 1    
    71   36   98 1    
    72   36   99 1    
    73   36  100 1    
    74   37   38 am   BACKBONE|DICT|INTERRES
    75   37  101 1    
    76   38   39 2    
    77   38   40 1    
    78   40   41 1    
    79   40   42 1    
    80   40  102 1    
    81   41  103 1    
    82   41  104 1    
    83   41  105 1    
    84   42   43 am   BACKBONE|DICT|INTERRES
    85   42  106 1    
    86   43   44 2    
    87   43   45 1    
    88   45   46 1    
    89   45   49 1    
    90   45  107 1    
    91   46   47 1    
    92   46  108 1    
    93   46  109 1    
    94   47   48 1    
    95   48  110 1    
    96   48  111 1    
    97   49   50 am   BACKBONE|DICT|INTERRES
    98   49  112 1    
    99   50   51 2    
   100   50   52 1    
   101   52   53 1    
   102   52   54 1    
   103   52  113 1    
   104   53  114 1    
   105   53  115 1    
   106   53  116 1    
   107   54   55 am   BACKBONE|DICT|INTERRES
   108   54  117 1    
   109   55   56 2    
   110   55   57 1    
   111   57   58 1    
   112   57   59 1    
   113   57  118 1    
   114   58  119 1    
   115   58  120 1    
   116   58  121 1    
   117   59   60 am   BACKBONE|DICT|INTERRES
   118   59  122 1    
   119   60   61 2    
   120   60   62 1    
   121   62   63 1    
   122   62   64 1    
   123   62  123 1    
   124   63  124 1    
   125   63  125 1    
   126   63  126 1    
   127   64   65 am   BACKBONE|DICT|INTERRES
   128   64  127 1    
   129   65   66 2    
@<TRIPOS>SUBSTRUCTURE
     1 UNK         1 GROUP             0       ****    0 ROOT    
