@<TRIPOS>MOLECULE
3R134
127   129    1
SMALL
USER_CHARGES


@<TRIPOS>ATOM
      1 CA         36.1247  -44.9701  -49.5869 C.3       0 UNK        -0.1968 
      2 C          35.2586  -45.3586  -50.7759 C.2       0 UNK         0.4852 
      3 O          35.7665  -45.9271  -51.7430 O.2       0 UNK        -0.5359 
      4 N          33.9546  -45.0575  -50.7112 N.am      1 UNK        -0.4300 
      5 CA         32.9762  -45.3407  -51.7711 C.3       1 UNK         0.0863 
      6 C6         31.6964  -44.4705  -51.6416 C.3       11 UNK        -0.0953 
      7 S7         31.9640  -42.6966  -51.2899 S.3       11 UNK        -0.2369 
      8 C8         33.1191  -42.1653  -52.5959 C.3       11 UNK         0.0226 
      9 C9         32.5657  -42.3588  -54.0014 C.ar      11 UNK        -0.0699 
     10 C10        33.2672  -43.1358  -54.9271 C.ar      11 UNK        -0.0804 
     11 C11        32.7831  -43.3035  -56.2274 C.ar      11 UNK        -0.0871 
     12 C12        31.5974  -42.6651  -56.6071 C.ar      11 UNK        -0.1008 
     13 C13        30.8628  -41.9240  -55.6778 C.ar      11 UNK        -0.0735 
     14 C14        31.3616  -41.7580  -54.3823 C.ar      11 UNK        -0.0945 
     15 C15        29.5124  -41.3361  -56.0572 C.3       11 UNK         0.0169 
     16 S16        28.1923  -42.5881  -55.9174 S.3       11 UNK        -0.2669 
     17 C17        28.3000  -43.4369  -57.5322 C.3       11 UNK        -0.0850 
     18 CA         26.9027  -43.8805  -58.0464 C.3       10 UNK         0.0855 
     19 C          26.9049  -44.1763  -59.5778 C.2       10 UNK         0.5543 
     20 N          26.3059  -45.2576  -60.0619 N.am      10 UNK        -0.7343 
     21 O          27.4502  -43.3953  -60.3537 O.2       10 UNK        -0.5027 
     22 N          26.3601  -44.9784  -57.2291 N.am      10 UNK        -0.4495 
     23 C          25.0638  -45.1928  -56.9797 C.2       10 UNK         0.4903 
     24 O          24.1613  -44.4281  -57.3254 O.2       10 UNK        -0.4860 
     25 CA         24.7323  -46.5127  -56.2524 C.3       9 UNK         0.0227 
     26 CB         23.2162  -46.7561  -56.1009 C.3       9 UNK        -0.1964 
     27 N          25.3817  -47.6748  -56.8753 N.am      9 UNK        -0.4231 
     28 C          25.2812  -48.0783  -58.1520 C.2       9 UNK         0.5014 
     29 O          24.5671  -47.5224  -58.9873 O.2       9 UNK        -0.5270 
     30 CA         26.1522  -49.2640  -58.6097 C.3       8 UNK         0.0284 
     31 CB         27.2008  -48.7848  -59.6282 C.3       8 UNK        -0.1977 
     32 N          26.8404  -49.9525  -57.5156 N.am      8 UNK        -0.4342 
     33 C          26.2749  -50.8383  -56.6854 C.2       8 UNK         0.5039 
     34 O          25.1073  -51.2182  -56.7796 O.2       8 UNK        -0.5547 
     35 CA         27.1510  -51.3572  -55.5301 C.3       7 UNK         0.0281 
     36 CB         28.0649  -52.4986  -56.0032 C.3       7 UNK        -0.1963 
     37 N          27.9563  -50.3008  -54.9070 N.am      7 UNK        -0.4444 
     38 C          27.4439  -49.2375  -54.2691 C.2       7 UNK         0.5104 
     39 O          26.2388  -49.0437  -54.1123 O.2       7 UNK        -0.5100 
     40 CA         28.4399  -48.1864  -53.7605 C.3       6 UNK         0.0396 
     41 CB         29.0150  -48.6001  -52.3981 C.3       6 UNK        -0.1801 
     42 N          29.5183  -47.9395  -54.7205 N.am      6 UNK        -0.4747 
     43 C          29.3407  -47.3254  -55.8993 C.2       6 UNK         0.5012 
     44 O          28.2642  -46.8552  -56.2678 O.2       6 UNK        -0.5003 
     45 CA         30.5507  -47.2475  -56.8493 C.3       5 UNK         0.0782 
     46 C46        31.4643  -46.0602  -56.4777 C.3       11 UNK        -0.0868 
     47 S47        32.4680  -45.5299  -57.9068 S.3       11 UNK        -0.2515 
     48 C48        33.5230  -44.2152  -57.1999 C.3       11 UNK         0.0199 
     49 N          31.2951  -48.5075  -56.9198 N.am      5 UNK        -0.4607 
     50 C          30.7937  -49.6666  -57.3658 C.2       4 UNK         0.5031 
     51 O          29.6497  -49.7938  -57.7967 O.2       4 UNK        -0.5119 
     52 CA         31.7022  -50.9050  -57.2753 C.3       4 UNK         0.0263 
     53 CB         32.5317  -51.0544  -58.5601 C.3       4 UNK        -0.1967 
     54 N          32.5952  -50.9049  -56.1113 N.am      4 UNK        -0.4237 
     55 C          32.1997  -50.8227  -54.8329 C.2       3 UNK         0.4908 
     56 O          31.0158  -50.7334  -54.4927 O.2       3 UNK        -0.5102 
     57 CA         33.2988  -50.8073  -53.7579 C.3       3 UNK         0.0241 
     58 CB         34.6919  -50.3877  -54.2759 C.3       3 UNK        -0.1971 
     59 N          32.8726  -49.9012  -52.6998 N.am      3 UNK        -0.4139 
     60 C          33.1438  -50.0001  -51.3990 C.2       2 UNK         0.5016 
     61 O          33.8914  -50.8538  -50.9171 O.2       2 UNK        -0.5319 
     62 CA         32.4435  -48.9687  -50.4898 C.3       2 UNK         0.0286 
     63 CB         32.6557  -49.2666  -48.9934 C.3       2 UNK        -0.1963 
     64 N          32.8358  -47.5780  -50.7454 N.am      2 UNK        -0.4790 
     65 C          32.5776  -46.8327  -51.8330 C.2       1 UNK         0.5024 
     66 O          32.0121  -47.2623  -52.8404 O.2       1 UNK        -0.4888 
     67 H67        36.5829  -45.8571  -49.1505 H         1 UNK         0.0892 
     68 H68        35.5495  -44.4676  -48.8094 H         1 UNK         0.0892 
     69 H69        36.9203  -44.2977  -49.9069 H         1 UNK         0.0892 
     70 H70        33.5921  -44.5690  -49.9041 H         1 UNK         0.3107 
     71 H71        33.4444  -45.1088  -52.7292 H         1 UNK         0.0773 
     72 H72        31.0588  -44.8495  -50.8401 H         1 UNK         0.0680 
     73 H73        31.1018  -44.5450  -52.5546 H         1 UNK         0.0680 
     74 H74        33.3395  -41.1069  -52.4520 H         1 UNK         0.0650 
     75 H75        34.0668  -42.6906  -52.4697 H         1 UNK         0.0650 
     76 H76        34.1893  -43.6178  -54.6319 H         1 UNK         0.1397 
     77 H77        31.2163  -42.7997  -57.6099 H         1 UNK         0.1363 
     78 H78        30.8034  -41.1772  -53.6607 H         1 UNK         0.1355 
     79 H79        29.5448  -40.9188  -57.0645 H         1 UNK         0.0707 
     80 H80        29.2705  -40.5031  -55.3954 H         1 UNK         0.0707 
     81 H81        28.9705  -44.2930  -57.4475 H         1 UNK         0.1034 
     82 H82        28.7710  -42.7555  -58.2421 H         1 UNK         0.1034 
     83 H83        26.2375  -43.0215  -57.9401 H         1 UNK         0.0482 
     84 H84        25.7870  -45.8861  -59.4621 H         1 UNK         0.3460 
     85 H85        26.3171  -45.4140  -61.0569 H         1 UNK         0.3460 
     86 H86        27.0353  -45.6688  -56.9056 H         1 UNK         0.2989 
     87 H87        25.1563  -46.4271  -55.2507 H         1 UNK         0.0559 
     88 H88        23.0167  -47.6757  -55.5508 H         1 UNK         0.0848 
     89 H89        22.7184  -46.8291  -57.0684 H         1 UNK         0.0848 
     90 H90        22.7427  -45.9412  -55.5521 H         1 UNK         0.0848 
     91 H91        26.0176  -48.1840  -56.2750 H         1 UNK         0.3144 
     92 H92        25.4934  -49.9776  -59.1090 H         1 UNK         0.0727 
     93 H93        27.8065  -49.6137  -59.9950 H         1 UNK         0.0790 
     94 H94        27.8743  -48.0449  -59.1929 H         1 UNK         0.0790 
     95 H95        26.7264  -48.3240  -60.4956 H         1 UNK         0.0790 
     96 H96        27.8377  -49.7641  -57.4219 H         1 UNK         0.3215 
     97 H97        26.4833  -51.7543  -54.7624 H         1 UNK         0.0863 
     98 H98        28.6802  -52.8811  -55.1886 H         1 UNK         0.0808 
     99 H99        28.7297  -52.1787  -56.8049 H         1 UNK         0.0808 
    100 H100       27.4757  -53.3331  -56.3855 H         1 UNK         0.0808 
    101 H101       28.9660  -50.3881  -54.9626 H         1 UNK         0.3118 
    102 H102       27.8910  -47.2523  -53.6206 H         1 UNK         0.0546 
    103 H103       28.2176  -48.8507  -51.6971 H         1 UNK         0.0828 
    104 H104       29.5853  -47.7874  -51.9505 H         1 UNK         0.0828 
    105 H105       29.6637  -49.4725  -52.4787 H         1 UNK         0.0828 
    106 H106       30.4325  -48.3022  -54.4883 H         1 UNK         0.3005 
    107 H107       30.1333  -47.0648  -57.8427 H         1 UNK         0.1257 
    108 H108       32.1159  -46.3067  -55.6370 H         1 UNK         0.0775 
    109 H109       30.8626  -45.2097  -56.1541 H         1 UNK         0.0775 
    110 H110       34.3746  -44.6899  -56.7099 H         1 UNK         0.0840 
    111 H111       33.9334  -43.6140  -58.0122 H         1 UNK         0.0840 
    112 H112       32.2502  -48.4856  -56.5962 H         1 UNK         0.2987 
    113 H113       31.0546  -51.7788  -57.1859 H         1 UNK         0.0785 
    114 H114       33.2283  -50.2253  -58.6914 H         1 UNK         0.0798 
    115 H115       31.8863  -51.0797  -59.4396 H         1 UNK         0.0798 
    116 H116       33.1066  -51.9806  -58.5573 H         1 UNK         0.0798 
    117 H117       33.5848  -50.9712  -56.3011 H         1 UNK         0.3079 
    118 H118       33.3599  -51.8209  -53.3563 H         1 UNK         0.0794 
    119 H119       34.6696  -49.4040  -54.7472 H         1 UNK         0.0786 
    120 H120       35.0844  -51.1023  -55.0000 H         1 UNK         0.0786 
    121 H121       35.4145  -50.3425  -53.4606 H         1 UNK         0.0786 
    122 H122       32.2804  -49.1290  -52.9923 H         1 UNK         0.3032 
    123 H123       31.3737  -49.0554  -50.6870 H         1 UNK         0.1094 
    124 H124       33.7045  -49.1748  -48.7081 H         1 UNK         0.0794 
    125 H125       32.0757  -48.5891  -48.3663 H         1 UNK         0.0794 
    126 H126       32.3382  -50.2808  -48.7470 H         1 UNK         0.0794 
    127 H127       33.3329  -47.1221  -49.9945 H         1 UNK         0.3016 
@<TRIPOS>BOND
     1    1    2 1    
     2    1   67 1    
     3    1   68 1    
     4    1   69 1    
     5    2    3 2    
     6    2    4 am   BACKBONE|DICT|INTERRES
     7    4    5 1    
     8    4   70 1    
     9    5    6 1    
    10    5   65 1    
    11    5   71 1    
    12    6    7 1    
    13    6   72 1    
    14    6   73 1    
    15    7    8 1    
    16    8    9 1    
    17    8   74 1    
    18    8   75 1    
    19    9   10 ar   
    20    9   14 ar   
    21   10   11 ar   
    22   10   76 1    
    23   11   12 ar   
    24   11   48 1    
    25   12   13 ar   
    26   12   77 1    
    27   13   14 ar   
    28   13   15 1    
    29   14   78 1    
    30   15   16 1    
    31   15   79 1    
    32   15   80 1    
    33   16   17 1    
    34   17   18 1    
    35   17   81 1    
    36   17   82 1    
    37   18   19 1    
    38   18   22 1    
    39   18   83 1    
    40   19   20 am   BACKBONE|DICT|INTERRES
    41   19   21 2    
    42   20   84 1    
    43   20   85 1    
    44   22   23 am   BACKBONE|DICT|INTERRES
    45   22   86 1    
    46   23   24 2    
    47   23   25 1    
    48   25   26 1    
    49   25   27 1    
    50   25   87 1    
    51   26   88 1    
    52   26   89 1    
    53   26   90 1    
    54   27   28 am   BACKBONE|DICT|INTERRES
    55   27   91 1    
    56   28   29 2    
    57   28   30 1    
    58   30   31 1    
    59   30   32 1    
    60   30   92 1    
    61   31   93 1    
    62   31   94 1    
    63   31   95 1    
    64   32   33 am   BACKBONE|DICT|INTERRES
    65   32   96 1    
    66   33   34 2    
    67   33   35 1    
    68   35   36 1    
    69   35   37 1    
    70   35   97 1    
    71   36   98 1    
    72   36   99 1    
    73   36  100 1    
    74   37   38 am   BACKBONE|DICT|INTERRES
    75   37  101 1    
    76   38   39 2    
    77   38   40 1    
    78   40   41 1    
    79   40   42 1    
    80   40  102 1    
    81   41  103 1    
    82   41  104 1    
    83   41  105 1    
    84   42   43 am   BACKBONE|DICT|INTERRES
    85   42  106 1    
    86   43   44 2    
    87   43   45 1    
    88   45   46 1    
    89   45   49 1    
    90   45  107 1    
    91   46   47 1    
    92   46  108 1    
    93   46  109 1    
    94   47   48 1    
    95   48  110 1    
    96   48  111 1    
    97   49   50 am   BACKBONE|DICT|INTERRES
    98   49  112 1    
    99   50   51 2    
   100   50   52 1    
   101   52   53 1    
   102   52   54 1    
   103   52  113 1    
   104   53  114 1    
   105   53  115 1    
   106   53  116 1    
   107   54   55 am   BACKBONE|DICT|INTERRES
   108   54  117 1    
   109   55   56 2    
   110   55   57 1    
   111   57   58 1    
   112   57   59 1    
   113   57  118 1    
   114   58  119 1    
   115   58  120 1    
   116   58  121 1    
   117   59   60 am   BACKBONE|DICT|INTERRES
   118   59  122 1    
   119   60   61 2    
   120   60   62 1    
   121   62   63 1    
   122   62   64 1    
   123   62  123 1    
   124   63  124 1    
   125   63  125 1    
   126   63  126 1    
   127   64   65 am   BACKBONE|DICT|INTERRES
   128   64  127 1    
   129   65   66 2    
@<TRIPOS>SUBSTRUCTURE
     1 UNK         1 GROUP             0       ****    0 ROOT    
