@<TRIPOS>MOLECULE
3R134
127   129    1
SMALL
USER_CHARGES


@<TRIPOS>ATOM
      1 CA         30.4445  -45.7745  -47.8173 C.3       0 UNK        -0.1968 
      2 C          31.1385  -45.8285  -49.1708 C.2       0 UNK         0.4852 
      3 O          30.5810  -46.3872  -50.1151 O.2       0 UNK        -0.5359 
      4 N          32.3422  -45.2457  -49.2643 N.am      1 UNK        -0.4300 
      5 CA         33.2154  -45.2209  -50.4454 C.3       1 UNK         0.0863 
      6 C6         32.5605  -44.5214  -51.6756 C.3       11 UNK        -0.0953 
      7 S7         33.7669  -43.5484  -52.6327 S.3       11 UNK        -0.2369 
      8 C8         32.6706  -42.5223  -53.6644 C.3       11 UNK         0.0226 
      9 C9         32.1614  -43.2672  -54.8916 C.ar      11 UNK        -0.0699 
     10 C10        33.0694  -43.7225  -55.8529 C.ar      11 UNK        -0.0804 
     11 C11        32.6241  -44.3712  -57.0075 C.ar      11 UNK        -0.0871 
     12 C12        31.2511  -44.5465  -57.2024 C.ar      11 UNK        -0.1008 
     13 C13        30.3309  -44.1008  -56.2506 C.ar      11 UNK        -0.0735 
     14 C14        30.7903  -43.4639  -55.0927 C.ar      11 UNK        -0.0945 
     15 C15        28.8460  -44.3298  -56.4839 C.3       11 UNK         0.0169 
     16 S16        28.2126  -43.2733  -57.8272 S.3       11 UNK        -0.2669 
     17 C17        27.0044  -42.2133  -56.9547 C.3       11 UNK        -0.0850 
     18 CA         25.5376  -42.6981  -57.1124 C.3       10 UNK         0.0855 
     19 C          24.9667  -42.4148  -58.5355 C.2       10 UNK         0.5543 
     20 N          24.5384  -43.4118  -59.3024 N.am      10 UNK        -0.7343 
     21 O          24.8973  -41.2584  -58.9450 O.2       10 UNK        -0.5027 
     22 N          25.3890  -44.0853  -56.6531 N.am      10 UNK        -0.4495 
     23 C          24.2462  -44.6603  -56.2654 C.2       10 UNK         0.4903 
     24 O          23.1832  -44.0514  -56.1346 O.2       10 UNK        -0.4860 
     25 CA         24.3140  -46.1734  -55.9781 C.3       9 UNK         0.0227 
     26 CB         22.9371  -46.8615  -56.0883 C.3       9 UNK        -0.1964 
     27 N          25.3142  -46.8886  -56.7859 N.am      9 UNK        -0.4231 
     28 C          25.3603  -46.9901  -58.1263 C.2       9 UNK         0.5014 
     29 O          24.5840  -46.3968  -58.8770 O.2       9 UNK        -0.5270 
     30 CA         26.4575  -47.8782  -58.7536 C.3       8 UNK         0.0284 
     31 CB         27.4858  -47.0148  -59.5036 C.3       8 UNK        -0.1977 
     32 N          27.1580  -48.7359  -57.7916 N.am      8 UNK        -0.4342 
     33 C          26.6067  -49.7831  -57.1561 C.2       8 UNK         0.5039 
     34 O          25.4866  -50.2207  -57.4213 O.2       8 UNK        -0.5547 
     35 CA         27.4027  -50.4348  -56.0044 C.3       7 UNK         0.0281 
     36 CB         28.0400  -51.7526  -56.4740 C.3       7 UNK        -0.1963 
     37 N          28.4482  -49.5903  -55.4185 N.am      7 UNK        -0.4444 
     38 C          28.2981  -48.3526  -54.9246 C.2       7 UNK         0.5104 
     39 O          27.2118  -47.7846  -54.8121 O.2       7 UNK        -0.5100 
     40 CA         29.5856  -47.5893  -54.5712 C.3       6 UNK         0.0396 
     41 CB         29.8743  -47.7147  -53.0709 C.3       6 UNK        -0.1801 
     42 N          30.7659  -48.0173  -55.3320 N.am      6 UNK        -0.4747 
     43 C          30.8915  -48.0488  -56.6694 C.2       6 UNK         0.5012 
     44 O          29.9891  -47.7322  -57.4461 O.2       6 UNK        -0.5003 
     45 CA         32.2160  -48.6071  -57.2246 C.3       5 UNK         0.0782 
     46 C46        33.3514  -47.5533  -57.2401 C.3       11 UNK        -0.0868 
     47 S47        33.2779  -46.5011  -58.7274 S.3       11 UNK        -0.2515 
     48 C48        33.6372  -44.8480  -58.0441 C.3       11 UNK         0.0199 
     49 N          32.6097  -49.7951  -56.4668 N.am      5 UNK        -0.4607 
     50 C          32.2746  -51.0508  -56.7873 C.2       4 UNK         0.5031 
     51 O          31.6376  -51.3524  -57.7962 O.2       4 UNK        -0.5119 
     52 CA         32.7252  -52.1670  -55.8270 C.3       4 UNK         0.0263 
     53 CB         34.0399  -52.7951  -56.3170 C.3       4 UNK        -0.1967 
     54 N          32.8915  -51.7216  -54.4406 N.am      4 UNK        -0.4237 
     55 C          31.8857  -51.3414  -53.6409 C.2       3 UNK         0.4908 
     56 O          30.7024  -51.3342  -53.9821 O.2       3 UNK        -0.5102 
     57 CA         32.2689  -50.8556  -52.2311 C.3       3 UNK         0.0241 
     58 CB         32.4280  -52.0523  -51.2794 C.3       3 UNK        -0.1971 
     59 N          33.4667  -50.0055  -52.1509 N.am      3 UNK        -0.4139 
     60 C          33.7166  -48.9192  -52.8962 C.2       2 UNK         0.5016 
     61 O          33.0432  -48.5758  -53.8677 O.2       2 UNK        -0.5319 
     62 CA         34.9012  -48.0373  -52.4799 C.3       2 UNK         0.0286 
     63 CB         35.8276  -47.7560  -53.6759 C.3       2 UNK        -0.1963 
     64 N          34.3933  -46.7684  -51.9572 N.am      2 UNK        -0.4790 
     65 C          33.8093  -46.6161  -50.7612 C.2       1 UNK         0.5024 
     66 O          33.7674  -47.5165  -49.9177 O.2       1 UNK        -0.4888 
     67 H67        30.2681  -46.7840  -47.4471 H         1 UNK         0.0892 
     68 H68        29.4820  -45.2721  -47.9096 H         1 UNK         0.0892 
     69 H69        31.0363  -45.2395  -47.0748 H         1 UNK         0.0892 
     70 H70        32.7443  -44.8320  -48.4347 H         1 UNK         0.3107 
     71 H71        34.0665  -44.6179  -50.1250 H         1 UNK         0.0773 
     72 H72        31.7883  -43.8279  -51.3393 H         1 UNK         0.0680 
     73 H73        32.0529  -45.2307  -52.3317 H         1 UNK         0.0680 
     74 H74        31.8452  -42.1420  -53.0607 H         1 UNK         0.0650 
     75 H75        33.2303  -41.6476  -53.9981 H         1 UNK         0.0650 
     76 H76        34.1281  -43.5637  -55.6985 H         1 UNK         0.1397 
     77 H77        30.8907  -45.0382  -58.0960 H         1 UNK         0.1363 
     78 H78        30.0818  -43.1121  -54.3555 H         1 UNK         0.1355 
     79 H79        28.2820  -44.1772  -55.5629 H         1 UNK         0.0707 
     80 H80        28.6876  -45.3723  -56.7606 H         1 UNK         0.0707 
     81 H81        27.1123  -41.1920  -57.3252 H         1 UNK         0.1034 
     82 H82        27.2629  -42.1550  -55.8967 H         1 UNK         0.1034 
     83 H83        24.9359  -42.0804  -56.4428 H         1 UNK         0.0482 
     84 H84        24.5798  -44.3749  -58.9875 H         1 UNK         0.3460 
     85 H85        24.1681  -43.2026  -60.2154 H         1 UNK         0.3460 
     86 H86        26.2029  -44.6695  -56.7674 H         1 UNK         0.2989 
     87 H87        24.6455  -46.2668  -54.9430 H         1 UNK         0.0559 
     88 H88        23.0070  -47.9262  -55.8649 H         1 UNK         0.0848 
     89 H89        22.5114  -46.7558  -57.0867 H         1 UNK         0.0848 
     90 H90        22.2245  -46.4306  -55.3839 H         1 UNK         0.0848 
     91 H91        26.0262  -47.3713  -56.2417 H         1 UNK         0.3144 
     92 H92        25.9650  -48.5256  -59.4820 H         1 UNK         0.0727 
     93 H93        28.2316  -47.6314  -60.0057 H         1 UNK         0.0790 
     94 H94        28.0122  -46.3366  -58.8325 H         1 UNK         0.0790 
     95 H95        27.0030  -46.4042  -60.2678 H         1 UNK         0.0790 
     96 H96        28.1029  -48.4547  -57.5432 H         1 UNK         0.3215 
     97 H97        26.6890  -50.6597  -55.2095 H         1 UNK         0.0863 
     98 H98        28.5254  -52.2757  -55.6495 H         1 UNK         0.0808 
     99 H99        28.7882  -51.5833  -57.2497 H         1 UNK         0.0808 
    100 H100       27.2881  -52.4269  -56.8863 H         1 UNK         0.0808 
    101 H101       29.3833  -49.9776  -55.4065 H         1 UNK         0.3118 
    102 H102       29.4227  -46.5355  -54.7948 H         1 UNK         0.0546 
    103 H103       29.0699  -47.2747  -52.4801 H         1 UNK         0.0828 
    104 H104       30.7952  -47.2024  -52.7943 H         1 UNK         0.0828 
    105 H105       29.9660  -48.7565  -52.7678 H         1 UNK         0.0828 
    106 H106       31.5802  -48.2781  -54.7749 H         1 UNK         0.3005 
    107 H107       32.0227  -48.9103  -58.2567 H         1 UNK         0.1257 
    108 H108       34.3232  -48.0493  -57.2625 H         1 UNK         0.0775 
    109 H109       33.3513  -46.9518  -56.3288 H         1 UNK         0.0775 
    110 H110       34.6428  -44.8639  -57.6205 H         1 UNK         0.0840 
    111 H111       33.6596  -44.1287  -58.8636 H         1 UNK         0.0840 
    112 H112       33.0644  -49.6188  -55.5775 H         1 UNK         0.2987 
    113 H113       31.9518  -52.9383  -55.8408 H         1 UNK         0.0785 
    114 H114       34.8595  -52.0753  -56.3094 H         1 UNK         0.0798 
    115 H115       33.9392  -53.1630  -57.3392 H         1 UNK         0.0798 
    116 H116       34.3304  -53.6436  -55.6972 H         1 UNK         0.0798 
    117 H117       33.8331  -51.6872  -54.0778 H         1 UNK         0.3079 
    118 H118       31.4374  -50.2534  -51.8634 H         1 UNK         0.0794 
    119 H119       33.2861  -52.6706  -51.5461 H         1 UNK         0.0786 
    120 H120       31.5446  -52.6923  -51.3042 H         1 UNK         0.0786 
    121 H121       32.5571  -51.7252  -50.2475 H         1 UNK         0.0786 
    122 H122       34.0779  -50.1872  -51.3674 H         1 UNK         0.3032 
    123 H123       35.4807  -48.5424  -51.7037 H         1 UNK         0.1094 
    124 H124       35.3109  -47.2230  -54.4755 H         1 UNK         0.0794 
    125 H125       36.6877  -47.1566  -53.3774 H         1 UNK         0.0794 
    126 H126       36.2113  -48.6852  -54.0990 H         1 UNK         0.0794 
    127 H127       34.3702  -45.9876  -52.5999 H         1 UNK         0.3016 
@<TRIPOS>BOND
     1    1    2 1    
     2    1   67 1    
     3    1   68 1    
     4    1   69 1    
     5    2    3 2    
     6    2    4 am   BACKBONE|DICT|INTERRES
     7    4    5 1    
     8    4   70 1    
     9    5    6 1    
    10    5   65 1    
    11    5   71 1    
    12    6    7 1    
    13    6   72 1    
    14    6   73 1    
    15    7    8 1    
    16    8    9 1    
    17    8   74 1    
    18    8   75 1    
    19    9   10 ar   
    20    9   14 ar   
    21   10   11 ar   
    22   10   76 1    
    23   11   12 ar   
    24   11   48 1    
    25   12   13 ar   
    26   12   77 1    
    27   13   14 ar   
    28   13   15 1    
    29   14   78 1    
    30   15   16 1    
    31   15   79 1    
    32   15   80 1    
    33   16   17 1    
    34   17   18 1    
    35   17   81 1    
    36   17   82 1    
    37   18   19 1    
    38   18   22 1    
    39   18   83 1    
    40   19   20 am   BACKBONE|DICT|INTERRES
    41   19   21 2    
    42   20   84 1    
    43   20   85 1    
    44   22   23 am   BACKBONE|DICT|INTERRES
    45   22   86 1    
    46   23   24 2    
    47   23   25 1    
    48   25   26 1    
    49   25   27 1    
    50   25   87 1    
    51   26   88 1    
    52   26   89 1    
    53   26   90 1    
    54   27   28 am   BACKBONE|DICT|INTERRES
    55   27   91 1    
    56   28   29 2    
    57   28   30 1    
    58   30   31 1    
    59   30   32 1    
    60   30   92 1    
    61   31   93 1    
    62   31   94 1    
    63   31   95 1    
    64   32   33 am   BACKBONE|DICT|INTERRES
    65   32   96 1    
    66   33   34 2    
    67   33   35 1    
    68   35   36 1    
    69   35   37 1    
    70   35   97 1    
    71   36   98 1    
    72   36   99 1    
    73   36  100 1    
    74   37   38 am   BACKBONE|DICT|INTERRES
    75   37  101 1    
    76   38   39 2    
    77   38   40 1    
    78   40   41 1    
    79   40   42 1    
    80   40  102 1    
    81   41  103 1    
    82   41  104 1    
    83   41  105 1    
    84   42   43 am   BACKBONE|DICT|INTERRES
    85   42  106 1    
    86   43   44 2    
    87   43   45 1    
    88   45   46 1    
    89   45   49 1    
    90   45  107 1    
    91   46   47 1    
    92   46  108 1    
    93   46  109 1    
    94   47   48 1    
    95   48  110 1    
    96   48  111 1    
    97   49   50 am   BACKBONE|DICT|INTERRES
    98   49  112 1    
    99   50   51 2    
   100   50   52 1    
   101   52   53 1    
   102   52   54 1    
   103   52  113 1    
   104   53  114 1    
   105   53  115 1    
   106   53  116 1    
   107   54   55 am   BACKBONE|DICT|INTERRES
   108   54  117 1    
   109   55   56 2    
   110   55   57 1    
   111   57   58 1    
   112   57   59 1    
   113   57  118 1    
   114   58  119 1    
   115   58  120 1    
   116   58  121 1    
   117   59   60 am   BACKBONE|DICT|INTERRES
   118   59  122 1    
   119   60   61 2    
   120   60   62 1    
   121   62   63 1    
   122   62   64 1    
   123   62  123 1    
   124   63  124 1    
   125   63  125 1    
   126   63  126 1    
   127   64   65 am   BACKBONE|DICT|INTERRES
   128   64  127 1    
   129   65   66 2    
@<TRIPOS>SUBSTRUCTURE
     1 UNK         1 GROUP             0       ****    0 ROOT    
