@<TRIPOS>MOLECULE
3R134
127   129    1
SMALL
USER_CHARGES


@<TRIPOS>ATOM
      1 CA         33.9545  -45.5165  -51.2532 C.3       0 UNK        -0.1968 
      2 C          34.7118  -45.2656  -52.5498 C.2       0 UNK         0.4852 
      3 O          35.3023  -44.1972  -52.7162 O.2       0 UNK        -0.5359 
      4 N          34.6931  -46.2379  -53.4655 N.am      1 UNK        -0.4300 
      5 CA         35.3143  -46.1680  -54.7892 C.3       1 UNK         0.0863 
      6 C6         34.5104  -45.3129  -55.8148 C.3       11 UNK        -0.0953 
      7 S7         32.7050  -45.6226  -55.8022 S.3       11 UNK        -0.2369 
      8 C8         32.0936  -43.9849  -55.2912 C.3       11 UNK         0.0226 
      9 C9         30.7648  -44.0711  -54.5587 C.ar      11 UNK        -0.0699 
     10 C10        30.7107  -43.8418  -53.1807 C.ar      11 UNK        -0.0804 
     11 C11        29.4905  -43.8838  -52.5012 C.ar      11 UNK        -0.0871 
     12 C12        28.3160  -44.1472  -53.2138 C.ar      11 UNK        -0.1008 
     13 C13        28.3571  -44.3799  -54.5920 C.ar      11 UNK        -0.0735 
     14 C14        29.5869  -44.3475  -55.2579 C.ar      11 UNK        -0.0945 
     15 C15        27.0699  -44.6676  -55.3539 C.3       11 UNK         0.0169 
     16 S16        26.1601  -43.1386  -55.7429 S.3       11 UNK        -0.2669 
     17 C17        27.2319  -42.3915  -57.0211 C.3       11 UNK        -0.0850 
     18 CA         26.5101  -42.1435  -58.3767 C.3       10 UNK         0.0855 
     19 C          27.4196  -41.3884  -59.3950 C.2       10 UNK         0.5543 
     20 N          27.3441  -41.6723  -60.6897 N.am      10 UNK        -0.7343 
     21 O          28.1845  -40.5063  -59.0123 O.2       10 UNK        -0.5027 
     22 N          25.8327  -43.3351  -58.9252 N.am      10 UNK        -0.4495 
     23 C          26.4013  -44.5012  -59.2561 C.2       10 UNK         0.4903 
     24 O          27.5926  -44.7765  -59.0931 O.2       10 UNK        -0.4860 
     25 CA         25.4723  -45.5200  -59.9240 C.3       9 UNK         0.0227 
     26 CB         25.2549  -45.1659  -61.4092 C.3       9 UNK        -0.1964 
     27 N          26.0510  -46.8552  -59.8021 N.am      9 UNK        -0.4231 
     28 C          25.3829  -48.0049  -59.9527 C.2       9 UNK         0.5014 
     29 O          24.1841  -48.0675  -60.2315 O.2       9 UNK        -0.5270 
     30 CA         26.1724  -49.3154  -59.7763 C.3       8 UNK         0.0284 
     31 CB         26.6687  -49.8265  -61.1393 C.3       8 UNK        -0.1977 
     32 N          27.3070  -49.2322  -58.8497 N.am      8 UNK        -0.4342 
     33 C          27.2047  -49.0077  -57.5334 C.2       8 UNK         0.5039 
     34 O          26.1415  -48.7568  -56.9597 O.2       8 UNK        -0.5547 
     35 CA         28.5175  -49.0692  -56.7345 C.3       7 UNK         0.0281 
     36 CB         29.3436  -47.7854  -56.9193 C.3       7 UNK        -0.1963 
     37 N          28.2518  -49.2560  -55.3093 N.am      7 UNK        -0.4444 
     38 C          27.9764  -50.4254  -54.7198 C.2       7 UNK         0.5104 
     39 O          27.9785  -51.5029  -55.3179 O.2       7 UNK        -0.5100 
     40 CA         27.6886  -50.3847  -53.2023 C.3       6 UNK         0.0396 
     41 CB         27.8152  -51.7694  -52.5405 C.3       6 UNK        -0.1801 
     42 N          28.5636  -49.4426  -52.4951 N.am      6 UNK        -0.4747 
     43 C          28.3748  -48.1194  -52.3985 C.2       6 UNK         0.5012 
     44 O          27.4017  -47.5530  -52.8958 O.2       6 UNK        -0.5003 
     45 CA         29.4736  -47.2670  -51.7276 C.3       5 UNK         0.0782 
     46 C46        28.9143  -46.3969  -50.5689 C.3       11 UNK        -0.0868 
     47 S47        30.0931  -45.0947  -50.0753 S.3       11 UNK        -0.2515 
     48 C48        29.4477  -43.6586  -50.9957 C.3       11 UNK         0.0199 
     49 N          30.6933  -48.0146  -51.3879 N.am      5 UNK        -0.4607 
     50 C          30.8807  -48.9112  -50.4124 C.2       4 UNK         0.5031 
     51 O          30.0029  -49.2668  -49.6260 O.2       4 UNK        -0.5119 
     52 CA         32.2748  -49.5699  -50.3715 C.3       4 UNK         0.0263 
     53 CB         32.4548  -50.5008  -49.1578 C.3       4 UNK        -0.1967 
     54 N          32.5399  -50.3294  -51.5987 N.am      4 UNK        -0.4237 
     55 C          32.8644  -49.7941  -52.7820 C.2       3 UNK         0.4908 
     56 O          33.0314  -48.5809  -52.9605 O.2       3 UNK        -0.5102 
     57 CA         32.9675  -50.7635  -53.9663 C.3       3 UNK         0.0241 
     58 CB         31.5782  -51.2645  -54.3947 C.3       3 UNK        -0.1971 
     59 N          33.5693  -50.0374  -55.0735 N.am      3 UNK        -0.4139 
     60 C          34.4940  -50.4900  -55.9238 C.2       2 UNK         0.5016 
     61 O          34.8634  -51.6633  -55.9855 O.2       2 UNK        -0.5319 
     62 CA         35.1308  -49.4377  -56.8524 C.3       2 UNK         0.0286 
     63 CB         34.4945  -49.4993  -58.2505 C.3       2 UNK        -0.1963 
     64 N          35.0194  -48.0661  -56.3358 N.am      2 UNK        -0.4790 
     65 C          35.6341  -47.6045  -55.2363 C.2       1 UNK         0.5024 
     66 O          36.4198  -48.2780  -54.5674 O.2       1 UNK        -0.4888 
     67 H67        33.2897  -44.6810  -51.0361 H         1 UNK         0.0892 
     68 H68        33.3484  -46.4199  -51.3042 H         1 UNK         0.0892 
     69 H69        34.6533  -45.6206  -50.4239 H         1 UNK         0.0892 
     70 H70        34.1946  -47.1040  -53.2701 H         1 UNK         0.3107 
     71 H71        36.2917  -45.6945  -54.6724 H         1 UNK         0.0773 
     72 H72        34.8882  -45.4459  -56.8299 H         1 UNK         0.0680 
     73 H73        34.6946  -44.2600  -55.5998 H         1 UNK         0.0680 
     74 H74        32.8281  -43.4978  -54.6482 H         1 UNK         0.0650 
     75 H75        31.9896  -43.3511  -56.1729 H         1 UNK         0.0650 
     76 H76        31.6190  -43.6330  -52.6325 H         1 UNK         0.1397 
     77 H77        27.3662  -44.1798  -52.6975 H         1 UNK         0.1363 
     78 H78        29.6325  -44.5307  -56.3227 H         1 UNK         0.1355 
     79 H79        27.2726  -45.2089  -56.2781 H         1 UNK         0.0707 
     80 H80        26.4314  -45.3191  -54.7550 H         1 UNK         0.0707 
     81 H81        27.6058  -41.4510  -56.6127 H         1 UNK         0.1034 
     82 H82        28.1138  -43.0087  -57.1848 H         1 UNK         0.1034 
     83 H83        25.7022  -41.4400  -58.1726 H         1 UNK         0.0482 
     84 H84        26.7146  -42.3846  -61.0207 H         1 UNK         0.3460 
     85 H85        27.9278  -41.1700  -61.3400 H         1 UNK         0.3460 
     86 H86        24.8469  -43.2149  -59.1089 H         1 UNK         0.2989 
     87 H87        24.5147  -45.5038  -59.3989 H         1 UNK         0.0559 
     88 H88        26.1920  -45.1839  -61.9671 H         1 UNK         0.0848 
     89 H89        24.8259  -44.1695  -61.5209 H         1 UNK         0.0848 
     90 H90        24.5679  -45.8616  -61.8912 H         1 UNK         0.0848 
     91 H91        27.0280  -46.8685  -59.5368 H         1 UNK         0.3144 
     92 H92        25.4771  -50.0546  -59.3725 H         1 UNK         0.0727 
     93 H93        27.1355  -50.8077  -61.0512 H         1 UNK         0.0790 
     94 H94        27.3943  -49.1459  -61.5866 H         1 UNK         0.0790 
     95 H95        25.8410  -49.9272  -61.8431 H         1 UNK         0.0790 
     96 H96        28.2201  -49.4185  -59.2403 H         1 UNK         0.3215 
     97 H97        29.1044  -49.9166  -57.0963 H         1 UNK         0.0863 
     98 H98        30.2803  -47.8318  -56.3629 H         1 UNK         0.0808 
     99 H99        28.7989  -46.9066  -56.5790 H         1 UNK         0.0808 
    100 H100       29.5997  -47.6234  -57.9669 H         1 UNK         0.0808 
    101 H101       28.1205  -48.4194  -54.7555 H         1 UNK         0.3118 
    102 H102       26.6529  -50.0590  -53.0864 H         1 UNK         0.0546 
    103 H103       28.8182  -52.1818  -52.6520 H         1 UNK         0.0828 
    104 H104       27.1188  -52.4816  -52.9850 H         1 UNK         0.0828 
    105 H105       27.5880  -51.7224  -51.4753 H         1 UNK         0.0828 
    106 H106       29.3927  -49.8283  -52.0681 H         1 UNK         0.3005 
    107 H107       29.7872  -46.5896  -52.5222 H         1 UNK         0.1257 
    108 H108       28.6821  -47.0085  -49.6964 H         1 UNK         0.0775 
    109 H109       27.9730  -45.9219  -50.8508 H         1 UNK         0.0775 
    110 H110       28.4312  -43.4420  -50.6633 H         1 UNK         0.0840 
    111 H111       30.0432  -42.7799  -50.7437 H         1 UNK         0.0840 
    112 H112       31.4770  -47.8661  -52.0168 H         1 UNK         0.2987 
    113 H113       33.0116  -48.7683  -50.2854 H         1 UNK         0.0785 
    114 H114       33.4656  -50.9071  -49.1162 H         1 UNK         0.0798 
    115 H115       31.7568  -51.3387  -49.1812 H         1 UNK         0.0798 
    116 H116       32.2861  -49.9618  -48.2245 H         1 UNK         0.0798 
    117 H117       32.4039  -51.3288  -51.5412 H         1 UNK         0.3079 
    118 H118       33.6004  -51.6046  -53.6751 H         1 UNK         0.0794 
    119 H119       31.0905  -51.8234  -53.5960 H         1 UNK         0.0786 
    120 H120       31.6465  -51.9291  -55.2562 H         1 UNK         0.0786 
    121 H121       30.9245  -50.4359  -54.6677 H         1 UNK         0.0786 
    122 H122       33.3849  -49.0428  -55.0587 H         1 UNK         0.3032 
    123 H123       36.1915  -49.6835  -56.9414 H         1 UNK         0.1094 
    124 H124       34.9850  -48.8130  -58.9410 H         1 UNK         0.0794 
    125 H125       34.5821  -50.5005  -58.6751 H         1 UNK         0.0794 
    126 H126       33.4331  -49.2489  -58.2230 H         1 UNK         0.0794 
    127 H127       34.3764  -47.4490  -56.8139 H         1 UNK         0.3016 
@<TRIPOS>BOND
     1    1    2 1    
     2    1   67 1    
     3    1   68 1    
     4    1   69 1    
     5    2    3 2    
     6    2    4 am   BACKBONE|DICT|INTERRES
     7    4    5 1    
     8    4   70 1    
     9    5    6 1    
    10    5   65 1    
    11    5   71 1    
    12    6    7 1    
    13    6   72 1    
    14    6   73 1    
    15    7    8 1    
    16    8    9 1    
    17    8   74 1    
    18    8   75 1    
    19    9   10 ar   
    20    9   14 ar   
    21   10   11 ar   
    22   10   76 1    
    23   11   12 ar   
    24   11   48 1    
    25   12   13 ar   
    26   12   77 1    
    27   13   14 ar   
    28   13   15 1    
    29   14   78 1    
    30   15   16 1    
    31   15   79 1    
    32   15   80 1    
    33   16   17 1    
    34   17   18 1    
    35   17   81 1    
    36   17   82 1    
    37   18   19 1    
    38   18   22 1    
    39   18   83 1    
    40   19   20 am   BACKBONE|DICT|INTERRES
    41   19   21 2    
    42   20   84 1    
    43   20   85 1    
    44   22   23 am   BACKBONE|DICT|INTERRES
    45   22   86 1    
    46   23   24 2    
    47   23   25 1    
    48   25   26 1    
    49   25   27 1    
    50   25   87 1    
    51   26   88 1    
    52   26   89 1    
    53   26   90 1    
    54   27   28 am   BACKBONE|DICT|INTERRES
    55   27   91 1    
    56   28   29 2    
    57   28   30 1    
    58   30   31 1    
    59   30   32 1    
    60   30   92 1    
    61   31   93 1    
    62   31   94 1    
    63   31   95 1    
    64   32   33 am   BACKBONE|DICT|INTERRES
    65   32   96 1    
    66   33   34 2    
    67   33   35 1    
    68   35   36 1    
    69   35   37 1    
    70   35   97 1    
    71   36   98 1    
    72   36   99 1    
    73   36  100 1    
    74   37   38 am   BACKBONE|DICT|INTERRES
    75   37  101 1    
    76   38   39 2    
    77   38   40 1    
    78   40   41 1    
    79   40   42 1    
    80   40  102 1    
    81   41  103 1    
    82   41  104 1    
    83   41  105 1    
    84   42   43 am   BACKBONE|DICT|INTERRES
    85   42  106 1    
    86   43   44 2    
    87   43   45 1    
    88   45   46 1    
    89   45   49 1    
    90   45  107 1    
    91   46   47 1    
    92   46  108 1    
    93   46  109 1    
    94   47   48 1    
    95   48  110 1    
    96   48  111 1    
    97   49   50 am   BACKBONE|DICT|INTERRES
    98   49  112 1    
    99   50   51 2    
   100   50   52 1    
   101   52   53 1    
   102   52   54 1    
   103   52  113 1    
   104   53  114 1    
   105   53  115 1    
   106   53  116 1    
   107   54   55 am   BACKBONE|DICT|INTERRES
   108   54  117 1    
   109   55   56 2    
   110   55   57 1    
   111   57   58 1    
   112   57   59 1    
   113   57  118 1    
   114   58  119 1    
   115   58  120 1    
   116   58  121 1    
   117   59   60 am   BACKBONE|DICT|INTERRES
   118   59  122 1    
   119   60   61 2    
   120   60   62 1    
   121   62   63 1    
   122   62   64 1    
   123   62  123 1    
   124   63  124 1    
   125   63  125 1    
   126   63  126 1    
   127   64   65 am   BACKBONE|DICT|INTERRES
   128   64  127 1    
   129   65   66 2    
@<TRIPOS>SUBSTRUCTURE
     1 UNK         1 GROUP             0       ****    0 ROOT    
