@<TRIPOS>MOLECULE
3R134
127   129    1
SMALL
USER_CHARGES


@<TRIPOS>ATOM
      1 CA         28.5157  -45.3020  -51.9331 C.3       0 UNK        -0.1968 
      2 C          29.8377  -45.2803  -51.1790 C.2       0 UNK         0.4852 
      3 O          29.8410  -45.3347  -49.9479 O.2       0 UNK        -0.5359 
      4 N          30.9556  -45.1929  -51.9097 N.am      1 UNK        -0.4300 
      5 CA         32.3215  -45.2188  -51.3724 C.3       1 UNK         0.0863 
      6 C6         33.3225  -44.5540  -52.3516 C.3       11 UNK        -0.0953 
      7 S7         32.9172  -42.7945  -52.6188 S.3       11 UNK        -0.2369 
      8 C8         33.6767  -42.4637  -54.2400 C.3       11 UNK         0.0226 
      9 C9         33.0166  -43.2429  -55.3698 C.ar      11 UNK        -0.0699 
     10 C10        33.7527  -44.1834  -56.0961 C.ar      11 UNK        -0.0804 
     11 C11        33.1625  -44.8903  -57.1479 C.ar      11 UNK        -0.0871 
     12 C12        31.8202  -44.6621  -57.4635 C.ar      11 UNK        -0.1008 
     13 C13        31.0733  -43.7270  -56.7415 C.ar      11 UNK        -0.0735 
     14 C14        31.6779  -43.0131  -55.7025 C.ar      11 UNK        -0.0945 
     15 C15        29.6097  -43.4979  -57.0754 C.3       11 UNK         0.0169 
     16 S16        28.5518  -44.4601  -55.9541 S.3       11 UNK        -0.2669 
     17 C17        27.5089  -43.1670  -55.1857 C.3       11 UNK        -0.0850 
     18 CA         26.0622  -43.1382  -55.7476 C.3       10 UNK         0.0855 
     19 C          25.9785  -42.4252  -57.1314 C.2       10 UNK         0.5543 
     20 N          25.4504  -43.0427  -58.1822 N.am      10 UNK        -0.7343 
     21 O          26.3940  -41.2752  -57.2495 O.2       10 UNK        -0.5027 
     22 N          25.4700  -44.4798  -55.7023 N.am      10 UNK        -0.4495 
     23 C          24.1685  -44.7789  -55.7018 C.2       10 UNK         0.4903 
     24 O          23.2667  -43.9438  -55.6195 O.2       10 UNK        -0.4860 
     25 CA         23.8459  -46.2789  -55.8402 C.3       9 UNK         0.0227 
     26 CB         22.3677  -46.5519  -56.1904 C.3       9 UNK        -0.1964 
     27 N          24.7497  -46.9566  -56.7830 N.am      9 UNK        -0.4231 
     28 C          24.8947  -46.6998  -58.0954 C.2       9 UNK         0.5014 
     29 O          24.2620  -45.8234  -58.6862 O.2       9 UNK        -0.5270 
     30 CA         25.9412  -47.5091  -58.8931 C.3       8 UNK         0.0284 
     31 CB         27.0469  -46.5746  -59.4150 C.3       8 UNK        -0.1977 
     32 N          26.5648  -48.5982  -58.1368 N.am      8 UNK        -0.4342 
     33 C          25.9461  -49.7210  -57.7382 C.2       8 UNK         0.5039 
     34 O          24.8084  -50.0289  -58.0942 O.2       8 UNK        -0.5547 
     35 CA         26.6878  -50.6355  -56.7393 C.3       7 UNK         0.0281 
     36 CB         27.1885  -51.9051  -57.4462 C.3       7 UNK        -0.1963 
     37 N          27.8145  -49.9979  -56.0476 N.am      7 UNK        -0.4444 
     38 C          27.7514  -48.8866  -55.2950 C.2       7 UNK         0.5104 
     39 O          26.6959  -48.3196  -55.0084 O.2       7 UNK        -0.5100 
     40 CA         29.0862  -48.2569  -54.8488 C.3       6 UNK         0.0396 
     41 CB         29.3617  -48.6050  -53.3817 C.3       6 UNK        -0.1801 
     42 N          30.2422  -48.6451  -55.6686 N.am      6 UNK        -0.4747 
     43 C          30.3466  -48.4697  -56.9982 C.2       6 UNK         0.5012 
     44 O          29.5177  -47.8424  -57.6587 O.2       6 UNK        -0.5003 
     45 CA         31.4848  -49.2027  -57.7462 C.3       5 UNK         0.0782 
     46 C46        32.4816  -48.2341  -58.4304 C.3       11 UNK        -0.0868 
     47 S47        33.7736  -47.5789  -57.3181 S.3       11 UNK        -0.2515 
     48 C48        33.9862  -45.8870  -57.9466 C.3       11 UNK         0.0199 
     49 N          32.1679  -50.2273  -56.9488 N.am      5 UNK        -0.4607 
     50 C          31.6131  -51.3440  -56.4616 C.2       4 UNK         0.5031 
     51 O          30.4467  -51.6726  -56.6800 O.2       4 UNK        -0.5119 
     52 CA         32.4879  -52.2145  -55.5396 C.3       4 UNK         0.0263 
     53 CB         33.0799  -53.3946  -56.3265 C.3       4 UNK        -0.1967 
     54 N          33.5737  -51.4910  -54.8598 N.am      4 UNK        -0.4237 
     55 C          33.4054  -50.4744  -54.0016 C.2       3 UNK         0.4908 
     56 O          32.3071  -49.9856  -53.7278 O.2       3 UNK        -0.5102 
     57 CA         34.6767  -49.8913  -53.3715 C.3       3 UNK         0.0241 
     58 CB         35.3921  -48.9368  -54.3454 C.3       3 UNK        -0.1971 
     59 N          34.3137  -49.1745  -52.1527 N.am      3 UNK        -0.4139 
     60 C          35.1328  -48.8498  -51.1475 C.2       2 UNK         0.5016 
     61 O          36.3363  -49.1177  -51.1391 O.2       2 UNK        -0.5319 
     62 CA         34.5026  -48.0852  -49.9618 C.3       2 UNK         0.0286 
     63 CB         35.5059  -47.8307  -48.8205 C.3       2 UNK        -0.1963 
     64 N          33.9164  -46.8011  -50.3671 N.am      2 UNK        -0.4790 
     65 C          32.7502  -46.6587  -51.0110 C.2       1 UNK         0.5024 
     66 O          32.0447  -47.6204  -51.3218 O.2       1 UNK        -0.4888 
     67 H67        27.9682  -44.3767  -51.7568 H         1 UNK         0.0892 
     68 H68        28.6627  -45.4146  -53.0069 H         1 UNK         0.0892 
     69 H69        27.8998  -46.1326  -51.5896 H         1 UNK         0.0892 
     70 H70        30.8908  -45.1564  -52.9165 H         1 UNK         0.3107 
     71 H71        32.3306  -44.6480  -50.4410 H         1 UNK         0.0773 
     72 H72        33.3277  -45.0842  -53.3055 H         1 UNK         0.0680 
     73 H73        34.3436  -44.5978  -51.9692 H         1 UNK         0.0680 
     74 H74        34.7436  -42.6845  -54.1814 H         1 UNK         0.0650 
     75 H75        33.5955  -41.3970  -54.4531 H         1 UNK         0.0650 
     76 H76        34.7897  -44.3628  -55.8467 H         1 UNK         0.1397 
     77 H77        31.3528  -45.2152  -58.2663 H         1 UNK         0.1363 
     78 H78        31.1022  -42.2899  -55.1411 H         1 UNK         0.1355 
     79 H79        29.3796  -42.4331  -57.0243 H         1 UNK         0.0707 
     80 H80        29.3988  -43.8028  -58.1017 H         1 UNK         0.0707 
     81 H81        27.4656  -43.3806  -54.1173 H         1 UNK         0.1034 
     82 H82        27.9849  -42.1873  -55.2540 H         1 UNK         0.1034 
     83 H83        25.4751  -42.5112  -55.0741 H         1 UNK         0.0482 
     84 H84        25.0729  -43.9793  -58.1105 H         1 UNK         0.3460 
     85 H85        25.4040  -42.5541  -59.0617 H         1 UNK         0.3460 
     86 H86        26.1342  -45.2360  -55.7873 H         1 UNK         0.2989 
     87 H87        24.0402  -46.7234  -54.8630 H         1 UNK         0.0559 
     88 H88        22.0790  -46.0822  -57.1312 H         1 UNK         0.0848 
     89 H89        21.7051  -46.1611  -55.4173 H         1 UNK         0.0848 
     90 H90        22.1712  -47.6206  -56.2749 H         1 UNK         0.0848 
     91 H91        25.3656  -47.6462  -56.3617 H         1 UNK         0.3144 
     92 H92        25.4262  -47.9453  -59.7512 H         1 UNK         0.0727 
     93 H93        27.5791  -46.0851  -58.5978 H         1 UNK         0.0790 
     94 H94        26.6326  -45.7890  -60.0485 H         1 UNK         0.0790 
     95 H95        27.7793  -47.1179  -60.0124 H         1 UNK         0.0790 
     96 H96        27.5163  -48.4310  -57.8241 H         1 UNK         0.3215 
     97 H97        25.9632  -50.9288  -55.9770 H         1 UNK         0.0863 
     98 H98        27.6338  -52.6048  -56.7386 H         1 UNK         0.0808 
     99 H99        27.9383  -51.6743  -58.2042 H         1 UNK         0.0808 
    100 H100       26.3697  -52.4266  -57.9440 H         1 UNK         0.0808 
    101 H101       28.7281  -50.4056  -56.2151 H         1 UNK         0.3118 
    102 H102       28.9778  -47.1751  -54.9287 H         1 UNK         0.0546 
    103 H103       30.2362  -48.0709  -53.0175 H         1 UNK         0.0828 
    104 H104       29.5398  -49.6722  -53.2446 H         1 UNK         0.0828 
    105 H105       28.5222  -48.3275  -52.7432 H         1 UNK         0.0828 
    106 H106       30.9725  -49.1636  -55.1912 H         1 UNK         0.3005 
    107 H107       30.9745  -49.7391  -58.5499 H         1 UNK         0.1257 
    108 H108       32.9953  -48.7634  -59.2343 H         1 UNK         0.0775 
    109 H109       31.9503  -47.4167  -58.9205 H         1 UNK         0.0775 
    110 H110       35.0444  -45.6275  -57.8862 H         1 UNK         0.0840 
    111 H111       33.7291  -45.8350  -59.0056 H         1 UNK         0.0840 
    112 H112       33.1246  -50.0171  -56.7035 H         1 UNK         0.2987 
    113 H113       31.8302  -52.6160  -54.7657 H         1 UNK         0.0785 
    114 H114       33.7729  -53.0582  -57.0988 H         1 UNK         0.0798 
    115 H115       32.2940  -53.9675  -56.8213 H         1 UNK         0.0798 
    116 H116       33.6136  -54.0828  -55.6707 H         1 UNK         0.0798 
    117 H117       34.5117  -51.8207  -55.0391 H         1 UNK         0.3079 
    118 H118       35.3405  -50.7186  -53.1118 H         1 UNK         0.0794 
    119 H119       34.7845  -48.0558  -54.5551 H         1 UNK         0.0786 
    120 H120       35.6083  -49.4234  -55.2972 H         1 UNK         0.0786 
    121 H121       36.3429  -48.5928  -53.9383 H         1 UNK         0.0786 
    122 H122       33.3296  -48.9187  -52.0870 H         1 UNK         0.3032 
    123 H123       33.7085  -48.7216  -49.5636 H         1 UNK         0.1094 
    124 H124       35.0241  -47.3532  -47.9671 H         1 UNK         0.0794 
    125 H125       35.9370  -48.7669  -48.4628 H         1 UNK         0.0794 
    126 H126       36.3309  -47.1932  -49.1412 H         1 UNK         0.0794 
    127 H127       34.4625  -45.9766  -50.1610 H         1 UNK         0.3016 
@<TRIPOS>BOND
     1    1    2 1    
     2    1   67 1    
     3    1   68 1    
     4    1   69 1    
     5    2    3 2    
     6    2    4 am   BACKBONE|DICT|INTERRES
     7    4    5 1    
     8    4   70 1    
     9    5    6 1    
    10    5   65 1    
    11    5   71 1    
    12    6    7 1    
    13    6   72 1    
    14    6   73 1    
    15    7    8 1    
    16    8    9 1    
    17    8   74 1    
    18    8   75 1    
    19    9   10 ar   
    20    9   14 ar   
    21   10   11 ar   
    22   10   76 1    
    23   11   12 ar   
    24   11   48 1    
    25   12   13 ar   
    26   12   77 1    
    27   13   14 ar   
    28   13   15 1    
    29   14   78 1    
    30   15   16 1    
    31   15   79 1    
    32   15   80 1    
    33   16   17 1    
    34   17   18 1    
    35   17   81 1    
    36   17   82 1    
    37   18   19 1    
    38   18   22 1    
    39   18   83 1    
    40   19   20 am   BACKBONE|DICT|INTERRES
    41   19   21 2    
    42   20   84 1    
    43   20   85 1    
    44   22   23 am   BACKBONE|DICT|INTERRES
    45   22   86 1    
    46   23   24 2    
    47   23   25 1    
    48   25   26 1    
    49   25   27 1    
    50   25   87 1    
    51   26   88 1    
    52   26   89 1    
    53   26   90 1    
    54   27   28 am   BACKBONE|DICT|INTERRES
    55   27   91 1    
    56   28   29 2    
    57   28   30 1    
    58   30   31 1    
    59   30   32 1    
    60   30   92 1    
    61   31   93 1    
    62   31   94 1    
    63   31   95 1    
    64   32   33 am   BACKBONE|DICT|INTERRES
    65   32   96 1    
    66   33   34 2    
    67   33   35 1    
    68   35   36 1    
    69   35   37 1    
    70   35   97 1    
    71   36   98 1    
    72   36   99 1    
    73   36  100 1    
    74   37   38 am   BACKBONE|DICT|INTERRES
    75   37  101 1    
    76   38   39 2    
    77   38   40 1    
    78   40   41 1    
    79   40   42 1    
    80   40  102 1    
    81   41  103 1    
    82   41  104 1    
    83   41  105 1    
    84   42   43 am   BACKBONE|DICT|INTERRES
    85   42  106 1    
    86   43   44 2    
    87   43   45 1    
    88   45   46 1    
    89   45   49 1    
    90   45  107 1    
    91   46   47 1    
    92   46  108 1    
    93   46  109 1    
    94   47   48 1    
    95   48  110 1    
    96   48  111 1    
    97   49   50 am   BACKBONE|DICT|INTERRES
    98   49  112 1    
    99   50   51 2    
   100   50   52 1    
   101   52   53 1    
   102   52   54 1    
   103   52  113 1    
   104   53  114 1    
   105   53  115 1    
   106   53  116 1    
   107   54   55 am   BACKBONE|DICT|INTERRES
   108   54  117 1    
   109   55   56 2    
   110   55   57 1    
   111   57   58 1    
   112   57   59 1    
   113   57  118 1    
   114   58  119 1    
   115   58  120 1    
   116   58  121 1    
   117   59   60 am   BACKBONE|DICT|INTERRES
   118   59  122 1    
   119   60   61 2    
   120   60   62 1    
   121   62   63 1    
   122   62   64 1    
   123   62  123 1    
   124   63  124 1    
   125   63  125 1    
   126   63  126 1    
   127   64   65 am   BACKBONE|DICT|INTERRES
   128   64  127 1    
   129   65   66 2    
@<TRIPOS>SUBSTRUCTURE
     1 UNK         1 GROUP             0       ****    0 ROOT    
