@<TRIPOS>MOLECULE
3R134
127   129    1
SMALL
USER_CHARGES


@<TRIPOS>ATOM
      1 CA         32.0273  -49.6745  -57.7861 C.3       0 UNK        -0.1968 
      2 C          32.4645  -49.2611  -56.3908 C.2       0 UNK         0.4852 
      3 O          32.5620  -50.1080  -55.5023 O.2       0 UNK        -0.5359 
      4 N          32.7754  -47.9728  -56.1934 N.am      1 UNK        -0.4300 
      5 CA         33.2338  -47.3938  -54.9214 C.3       1 UNK         0.0863 
      6 C6         33.0604  -45.8578  -54.8522 C.3       11 UNK        -0.0953 
      7 S7         33.5178  -44.9511  -56.3688 S.3       11 UNK        -0.2369 
      8 C8         33.3419  -43.2223  -55.8150 C.3       11 UNK         0.0226 
      9 C9         31.9857  -42.9531  -55.1749 C.ar      11 UNK        -0.0699 
     10 C10        31.8538  -42.9917  -53.7836 C.ar      11 UNK        -0.0804 
     11 C11        30.6110  -42.7899  -53.1804 C.ar      11 UNK        -0.0871 
     12 C12        29.4991  -42.5085  -53.9789 C.ar      11 UNK        -0.1008 
     13 C13        29.6162  -42.4544  -55.3731 C.ar      11 UNK        -0.0735 
     14 C14        30.8643  -42.6808  -55.9648 C.ar      11 UNK        -0.0945 
     15 C15        28.4090  -42.1103  -56.2390 C.3       11 UNK         0.0169 
     16 S16        26.9470  -43.1264  -55.8518 S.3       11 UNK        -0.2669 
     17 C17        25.6821  -42.3090  -56.8851 C.3       11 UNK        -0.0850 
     18 CA         24.8004  -43.3180  -57.6760 C.3       10 UNK         0.0855 
     19 C          23.6078  -42.6276  -58.4069 C.2       10 UNK         0.5543 
     20 N          23.1556  -43.1288  -59.5502 N.am      10 UNK        -0.7343 
     21 O          23.0603  -41.6416  -57.9186 O.2       10 UNK        -0.5027 
     22 N          25.5847  -44.2441  -58.5126 N.am      10 UNK        -0.4495 
     23 C          26.3618  -43.9277  -59.5545 C.2       10 UNK         0.4903 
     24 O          26.5358  -42.7779  -59.9614 O.2       10 UNK        -0.4860 
     25 CA         27.0683  -45.1103  -60.2485 C.3       9 UNK         0.0227 
     26 CB         27.7834  -44.6913  -61.5470 C.3       9 UNK        -0.1964 
     27 N          28.0347  -45.7717  -59.3669 N.am      9 UNK        -0.4231 
     28 C          27.7340  -46.5855  -58.3460 C.2       9 UNK         0.5014 
     29 O          26.5789  -46.8853  -58.0282 O.2       9 UNK        -0.5270 
     30 CA         28.9325  -47.1260  -57.5484 C.3       8 UNK         0.0284 
     31 CB         29.5982  -46.0098  -56.7274 C.3       8 UNK        -0.1977 
     32 N          28.5408  -48.2083  -56.6448 N.am      8 UNK        -0.4342 
     33 C          28.3462  -49.4803  -57.0204 C.2       8 UNK         0.5039 
     34 O          28.5009  -49.8751  -58.1775 O.2       8 UNK        -0.5547 
     35 CA         27.9376  -50.5003  -55.9412 C.3       7 UNK         0.0281 
     36 CB         29.0601  -51.5288  -55.7139 C.3       7 UNK        -0.1963 
     37 N          27.6147  -49.8664  -54.6616 N.am      7 UNK        -0.4444 
     38 C          26.3772  -49.5285  -54.2711 C.2       7 UNK         0.5104 
     39 O          25.3648  -49.7652  -54.9308 O.2       7 UNK        -0.5100 
     40 CA         26.2282  -48.8043  -52.9170 C.3       6 UNK         0.0396 
     41 CB         25.8052  -49.7994  -51.8246 C.3       6 UNK        -0.1801 
     42 N          27.4339  -48.0971  -52.4759 N.am      6 UNK        -0.4747 
     43 C          28.0015  -47.0640  -53.1165 C.2       6 UNK         0.5012 
     44 O          27.5351  -46.5646  -54.1378 O.2       6 UNK        -0.5003 
     45 CA         29.3460  -46.5460  -52.5609 C.3       5 UNK         0.0782 
     46 C46        29.1003  -45.3467  -51.6128 C.3       11 UNK        -0.0868 
     47 S47        30.6523  -44.5714  -51.0463 S.3       11 UNK        -0.2515 
     48 C48        30.4808  -42.8648  -51.6659 C.3       11 UNK         0.0199 
     49 N          30.1504  -47.6034  -51.9226 N.am      5 UNK        -0.4607 
     50 C          30.5561  -48.7346  -52.5150 C.2       4 UNK         0.5031 
     51 O          30.2693  -49.0379  -53.6732 O.2       4 UNK        -0.5119 
     52 CA         31.3522  -49.7184  -51.6550 C.3       4 UNK         0.0263 
     53 CB         30.3787  -50.6568  -50.9125 C.3       4 UNK        -0.1967 
     54 N          32.2674  -50.4902  -52.4999 N.am      4 UNK        -0.4237 
     55 C          33.2674  -51.2571  -52.0392 C.2       3 UNK         0.4908 
     56 O          33.5503  -51.3677  -50.8455 O.2       3 UNK        -0.5102 
     57 CA         34.1052  -52.0235  -53.0726 C.3       3 UNK         0.0241 
     58 CB         33.2463  -53.0283  -53.8620 C.3       3 UNK        -0.1971 
     59 N          34.7478  -51.0852  -53.9886 N.am      3 UNK        -0.4139 
     60 C          36.0071  -50.6343  -53.8752 C.2       2 UNK         0.5016 
     61 O          36.8148  -51.0540  -53.0454 O.2       2 UNK        -0.5319 
     62 CA         36.4440  -49.5092  -54.8379 C.3       2 UNK         0.0286 
     63 CB         37.1383  -50.0968  -56.0769 C.3       2 UNK        -0.1963 
     64 N          35.3226  -48.6692  -55.2661 N.am      2 UNK        -0.4790 
     65 C          34.6213  -47.8750  -54.4443 C.2       1 UNK         0.5024 
     66 O          34.9988  -47.5836  -53.3086 O.2       1 UNK        -0.4888 
     67 H67        32.8341  -50.2077  -58.2877 H         1 UNK         0.0892 
     68 H68        31.1686  -50.3415  -57.7279 H         1 UNK         0.0892 
     69 H69        31.7503  -48.8163  -58.3971 H         1 UNK         0.0892 
     70 H70        32.7155  -47.3155  -56.9588 H         1 UNK         0.3107 
     71 H71        32.5647  -47.7924  -54.1616 H         1 UNK         0.0773 
     72 H72        33.6000  -45.4316  -54.0043 H         1 UNK         0.0680 
     73 H73        32.0098  -45.6476  -54.6542 H         1 UNK         0.0680 
     74 H74        33.4847  -42.5602  -56.6701 H         1 UNK         0.0650 
     75 H75        34.1452  -42.9915  -55.1135 H         1 UNK         0.0650 
     76 H76        32.7160  -43.2059  -53.1667 H         1 UNK         0.1397 
     77 H77        28.5370  -42.3326  -53.5174 H         1 UNK         0.1363 
     78 H78        30.9673  -42.6456  -57.0407 H         1 UNK         0.1355 
     79 H79        28.1652  -41.0576  -56.0894 H         1 UNK         0.0707 
     80 H80        28.6444  -42.2319  -57.2978 H         1 UNK         0.0707 
     81 H81        25.0651  -41.7043  -56.2181 H         1 UNK         0.1034 
     82 H82        26.1554  -41.6051  -57.5714 H         1 UNK         0.1034 
     83 H83        24.3197  -43.9580  -56.9353 H         1 UNK         0.0482 
     84 H84        23.5864  -43.9452  -59.9534 H         1 UNK         0.3460 
     85 H85        22.3778  -42.6849  -60.0127 H         1 UNK         0.3460 
     86 H86        25.5694  -45.2198  -58.2293 H         1 UNK         0.2989 
     87 H87        26.2964  -45.8343  -60.5184 H         1 UNK         0.0559 
     88 H88        28.5853  -43.9767  -61.3566 H         1 UNK         0.0848 
     89 H89        27.0865  -44.2203  -62.2417 H         1 UNK         0.0848 
     90 H90        28.2143  -45.5517  -62.0595 H         1 UNK         0.0848 
     91 H91        29.0064  -45.5535  -59.5338 H         1 UNK         0.3144 
     92 H92        29.6651  -47.5161  -58.2573 H         1 UNK         0.0727 
     93 H93        30.0771  -45.2726  -57.3722 H         1 UNK         0.0790 
     94 H94        30.3666  -46.4112  -56.0699 H         1 UNK         0.0790 
     95 H95        28.8777  -45.4754  -56.1079 H         1 UNK         0.0790 
     96 H96        28.2991  -47.9370  -55.7002 H         1 UNK         0.3215 
     97 H97        27.0649  -51.0365  -56.3201 H         1 UNK         0.0863 
     98 H98        29.9781  -51.0568  -55.3638 H         1 UNK         0.0808 
     99 H99        29.2998  -52.0573  -56.6374 H         1 UNK         0.0808 
    100 H100       28.7687  -52.2788  -54.9787 H         1 UNK         0.0808 
    101 H101       28.4096  -49.6071  -54.0842 H         1 UNK         0.3118 
    102 H102       25.4338  -48.0636  -53.0308 H         1 UNK         0.0546 
    103 H103       26.5719  -50.5549  -51.6475 H         1 UNK         0.0828 
    104 H104       24.8912  -50.3238  -52.1069 H         1 UNK         0.0828 
    105 H105       25.6057  -49.2932  -50.8800 H         1 UNK         0.0828 
    106 H106       27.8898  -48.4496  -51.6468 H         1 UNK         0.3005 
    107 H107       29.9139  -46.1850  -53.4213 H         1 UNK         0.1257 
    108 H108       28.5391  -45.6631  -50.7314 H         1 UNK         0.0775 
    109 H109       28.4840  -44.5922  -52.1057 H         1 UNK         0.0775 
    110 H110       29.5286  -42.4495  -51.3318 H         1 UNK         0.0840 
    111 H111       31.2562  -42.2469  -51.2107 H         1 UNK         0.0840 
    112 H112       30.4250  -47.4236  -50.9672 H         1 UNK         0.2987 
    113 H113       31.9413  -49.1508  -50.9315 H         1 UNK         0.0785 
    114 H114       29.6693  -50.0916  -50.3069 H         1 UNK         0.0798 
    115 H115       30.9038  -51.3314  -50.2365 H         1 UNK         0.0798 
    116 H116       29.8015  -51.2665  -51.6092 H         1 UNK         0.0798 
    117 H117       32.1055  -50.4075  -53.5020 H         1 UNK         0.3079 
    118 H118       34.8641  -52.5937  -52.5321 H         1 UNK         0.0794 
    119 H119       32.7590  -53.7351  -53.1891 H         1 UNK         0.0786 
    120 H120       33.8575  -53.6085  -54.5533 H         1 UNK         0.0786 
    121 H121       32.4632  -52.5400  -54.4426 H         1 UNK         0.0786 
    122 H122       34.1319  -50.6616  -54.6792 H         1 UNK         0.3032 
    123 H123       37.1603  -48.8797  -54.3047 H         1 UNK         0.1094 
    124 H124       37.9950  -50.7081  -55.7892 H         1 UNK         0.0794 
    125 H125       36.4654  -50.7309  -56.6557 H         1 UNK         0.0794 
    126 H126       37.5098  -49.3106  -56.7344 H         1 UNK         0.0794 
    127 H127       34.9459  -48.8447  -56.1862 H         1 UNK         0.3016 
@<TRIPOS>BOND
     1    1    2 1    
     2    1   67 1    
     3    1   68 1    
     4    1   69 1    
     5    2    3 2    
     6    2    4 am   BACKBONE|DICT|INTERRES
     7    4    5 1    
     8    4   70 1    
     9    5    6 1    
    10    5   65 1    
    11    5   71 1    
    12    6    7 1    
    13    6   72 1    
    14    6   73 1    
    15    7    8 1    
    16    8    9 1    
    17    8   74 1    
    18    8   75 1    
    19    9   10 ar   
    20    9   14 ar   
    21   10   11 ar   
    22   10   76 1    
    23   11   12 ar   
    24   11   48 1    
    25   12   13 ar   
    26   12   77 1    
    27   13   14 ar   
    28   13   15 1    
    29   14   78 1    
    30   15   16 1    
    31   15   79 1    
    32   15   80 1    
    33   16   17 1    
    34   17   18 1    
    35   17   81 1    
    36   17   82 1    
    37   18   19 1    
    38   18   22 1    
    39   18   83 1    
    40   19   20 am   BACKBONE|DICT|INTERRES
    41   19   21 2    
    42   20   84 1    
    43   20   85 1    
    44   22   23 am   BACKBONE|DICT|INTERRES
    45   22   86 1    
    46   23   24 2    
    47   23   25 1    
    48   25   26 1    
    49   25   27 1    
    50   25   87 1    
    51   26   88 1    
    52   26   89 1    
    53   26   90 1    
    54   27   28 am   BACKBONE|DICT|INTERRES
    55   27   91 1    
    56   28   29 2    
    57   28   30 1    
    58   30   31 1    
    59   30   32 1    
    60   30   92 1    
    61   31   93 1    
    62   31   94 1    
    63   31   95 1    
    64   32   33 am   BACKBONE|DICT|INTERRES
    65   32   96 1    
    66   33   34 2    
    67   33   35 1    
    68   35   36 1    
    69   35   37 1    
    70   35   97 1    
    71   36   98 1    
    72   36   99 1    
    73   36  100 1    
    74   37   38 am   BACKBONE|DICT|INTERRES
    75   37  101 1    
    76   38   39 2    
    77   38   40 1    
    78   40   41 1    
    79   40   42 1    
    80   40  102 1    
    81   41  103 1    
    82   41  104 1    
    83   41  105 1    
    84   42   43 am   BACKBONE|DICT|INTERRES
    85   42  106 1    
    86   43   44 2    
    87   43   45 1    
    88   45   46 1    
    89   45   49 1    
    90   45  107 1    
    91   46   47 1    
    92   46  108 1    
    93   46  109 1    
    94   47   48 1    
    95   48  110 1    
    96   48  111 1    
    97   49   50 am   BACKBONE|DICT|INTERRES
    98   49  112 1    
    99   50   51 2    
   100   50   52 1    
   101   52   53 1    
   102   52   54 1    
   103   52  113 1    
   104   53  114 1    
   105   53  115 1    
   106   53  116 1    
   107   54   55 am   BACKBONE|DICT|INTERRES
   108   54  117 1    
   109   55   56 2    
   110   55   57 1    
   111   57   58 1    
   112   57   59 1    
   113   57  118 1    
   114   58  119 1    
   115   58  120 1    
   116   58  121 1    
   117   59   60 am   BACKBONE|DICT|INTERRES
   118   59  122 1    
   119   60   61 2    
   120   60   62 1    
   121   62   63 1    
   122   62   64 1    
   123   62  123 1    
   124   63  124 1    
   125   63  125 1    
   126   63  126 1    
   127   64   65 am   BACKBONE|DICT|INTERRES
   128   64  127 1    
   129   65   66 2    
@<TRIPOS>SUBSTRUCTURE
     1 UNK         1 GROUP             0       ****    0 ROOT    
