@<TRIPOS>MOLECULE
3R134
127   129    1
SMALL
USER_CHARGES


@<TRIPOS>ATOM
      1 CA         32.1848  -43.1119  -47.7671 C.3       0 UNK        -0.1968 
      2 C          32.9036  -44.1503  -48.6162 C.2       0 UNK         0.4852 
      3 O          33.7599  -44.8731  -48.1033 O.2       0 UNK        -0.5359 
      4 N          32.5690  -44.2221  -49.9104 N.am      1 UNK        -0.4300 
      5 CA         33.0895  -45.2062  -50.8629 C.3       1 UNK         0.0863 
      6 C6         32.8733  -44.7663  -52.3367 C.3       11 UNK        -0.0953 
      7 S7         31.1749  -44.1958  -52.7185 S.3       11 UNK        -0.2369 
      8 C8         31.4847  -42.7283  -53.7525 C.3       11 UNK         0.0226 
      9 C9         31.5228  -43.0601  -55.2400 C.ar      11 UNK        -0.0699 
     10 C10        32.5290  -43.8754  -55.7690 C.ar      11 UNK        -0.0804 
     11 C11        32.5734  -44.1530  -57.1389 C.ar      11 UNK        -0.0871 
     12 C12        31.6029  -43.6048  -57.9836 C.ar      11 UNK        -0.1008 
     13 C13        30.5939  -42.7855  -57.4706 C.ar      11 UNK        -0.0735 
     14 C14        30.5634  -42.5150  -56.0987 C.ar      11 UNK        -0.0945 
     15 C15        29.5678  -42.1604  -58.4082 C.3       11 UNK         0.0169 
     16 S16        28.0786  -43.1937  -58.6055 S.3       11 UNK        -0.2669 
     17 C17        27.2572  -42.9536  -56.9943 C.3       11 UNK        -0.0850 
     18 CA         27.3377  -44.2340  -56.1076 C.3       10 UNK         0.0855 
     19 C          27.2684  -43.9426  -54.5750 C.2       10 UNK         0.5543 
     20 N          26.9684  -44.9311  -53.7414 N.am      10 UNK        -0.7343 
     21 O          27.4998  -42.8218  -54.1277 O.2       10 UNK        -0.5027 
     22 N          26.4070  -45.2894  -56.5577 N.am      10 UNK        -0.4495 
     23 C          25.0687  -45.2146  -56.4908 C.2       10 UNK         0.4903 
     24 O          24.4704  -44.2207  -56.0750 O.2       10 UNK        -0.4860 
     25 CA         24.2200  -46.4314  -56.9120 C.3       9 UNK         0.0227 
     26 CB         23.1467  -46.0418  -57.9510 C.3       9 UNK        -0.1964 
     27 N          24.9558  -47.6262  -57.3399 N.am      9 UNK        -0.4231 
     28 C          25.6822  -47.8229  -58.4474 C.2       9 UNK         0.5014 
     29 O          25.9057  -46.9472  -59.2842 O.2       9 UNK        -0.5270 
     30 CA         26.2312  -49.2533  -58.6542 C.3       8 UNK         0.0284 
     31 CB         27.1536  -49.3582  -59.8827 C.3       8 UNK        -0.1977 
     32 N          26.9402  -49.7709  -57.4784 N.am      8 UNK        -0.4342 
     33 C          26.3754  -50.1807  -56.3339 C.2       8 UNK         0.5039 
     34 O          25.1570  -50.2277  -56.1577 O.2       8 UNK        -0.5547 
     35 CA         27.3192  -50.5147  -55.1667 C.3       7 UNK         0.0281 
     36 CB         27.8768  -51.9409  -55.2948 C.3       7 UNK        -0.1963 
     37 N          28.4210  -49.5567  -55.0492 N.am      7 UNK        -0.4444 
     38 C          28.2747  -48.2482  -54.7884 C.2       7 UNK         0.5104 
     39 O          27.1959  -47.7041  -54.5502 O.2       7 UNK        -0.5100 
     40 CA         29.5528  -47.3983  -54.8407 C.3       6 UNK         0.0396 
     41 CB         30.3539  -47.5439  -53.5385 C.3       6 UNK        -0.1801 
     42 N          30.3846  -47.7581  -55.9902 N.am      6 UNK        -0.4747 
     43 C          30.0639  -47.5019  -57.2685 C.2       6 UNK         0.5012 
     44 O          29.0540  -46.8860  -57.6069 O.2       6 UNK        -0.5003 
     45 CA         30.9953  -48.0828  -58.3555 C.3       5 UNK         0.0782 
     46 C46        32.1017  -47.0899  -58.7853 C.3       11 UNK        -0.0868 
     47 S47        33.3770  -46.7913  -57.5093 S.3       11 UNK        -0.2515 
     48 C48        33.6954  -45.0102  -57.7083 C.3       11 UNK         0.0199 
     49 N          31.5467  -49.3897  -57.9849 N.am      5 UNK        -0.4607 
     50 C          30.8254  -50.5123  -57.8711 C.2       4 UNK         0.5031 
     51 O          29.6216  -50.5733  -58.1124 O.2       4 UNK        -0.5119 
     52 CA         31.5561  -51.7638  -57.3516 C.3       4 UNK         0.0263 
     53 CB         32.1977  -52.5343  -58.5160 C.3       4 UNK        -0.1967 
     54 N          32.5728  -51.4669  -56.3351 N.am      4 UNK        -0.4237 
     55 C          32.3191  -50.8631  -55.1665 C.2       3 UNK         0.4908 
     56 O          31.1886  -50.5174  -54.8087 O.2       3 UNK        -0.5102 
     57 CA         33.5273  -50.5445  -54.2766 C.3       3 UNK         0.0241 
     58 CB         34.4591  -49.5218  -54.9622 C.3       3 UNK        -0.1971 
     59 N          33.0244  -50.0004  -53.0188 N.am      3 UNK        -0.4139 
     60 C          33.7262  -49.7762  -51.9053 C.2       2 UNK         0.5016 
     61 O          34.9217  -50.0458  -51.7732 O.2       2 UNK        -0.5319 
     62 CA         32.9849  -49.0525  -50.7772 C.3       2 UNK         0.0286 
     63 CB         33.3692  -49.5809  -49.3822 C.3       2 UNK        -0.1963 
     64 N          33.3293  -47.6386  -50.8875 N.am      2 UNK        -0.4790 
     65 C          32.5207  -46.6158  -50.5907 C.2       1 UNK         0.5024 
     66 O          31.3775  -46.7529  -50.1477 O.2       1 UNK        -0.4888 
     67 H67        31.4665  -42.5352  -48.3496 H         1 UNK         0.0892 
     68 H68        32.9043  -42.4180  -47.3334 H         1 UNK         0.0892 
     69 H69        31.6478  -43.5995  -46.9539 H         1 UNK         0.0892 
     70 H70        31.8326  -43.6328  -50.2723 H         1 UNK         0.3107 
     71 H71        34.1685  -45.2638  -50.7011 H         1 UNK         0.0773 
     72 H72        33.5725  -43.9588  -52.5560 H         1 UNK         0.0680 
     73 H73        33.1386  -45.5680  -53.0281 H         1 UNK         0.0680 
     74 H74        30.6893  -42.0098  -53.5489 H         1 UNK         0.0650 
     75 H75        32.4120  -42.2353  -53.4594 H         1 UNK         0.0650 
     76 H76        33.2840  -44.2899  -55.1167 H         1 UNK         0.1397 
     77 H77        31.6386  -43.8019  -59.0461 H         1 UNK         0.1363 
     78 H78        29.7982  -41.8671  -55.6958 H         1 UNK         0.1355 
     79 H79        30.0148  -42.0094  -59.3920 H         1 UNK         0.0707 
     80 H80        29.2853  -41.1673  -58.0554 H         1 UNK         0.0707 
     81 H81        26.2226  -42.6591  -57.1707 H         1 UNK         0.1034 
     82 H82        27.7066  -42.0901  -56.5060 H         1 UNK         0.1034 
     83 H83        28.3373  -44.6473  -56.2398 H         1 UNK         0.0482 
     84 H84        26.8370  -45.8767  -54.0878 H         1 UNK         0.3460 
     85 H85        26.9259  -44.7452  -52.7529 H         1 UNK         0.3460 
     86 H86        26.8391  -46.1288  -56.9208 H         1 UNK         0.2989 
     87 H87        23.6930  -46.7393  -56.0078 H         1 UNK         0.0559 
     88 H88        22.5118  -46.8903  -58.2056 H         1 UNK         0.0848 
     89 H89        23.5921  -45.6658  -58.8725 H         1 UNK         0.0848 
     90 H90        22.4942  -45.2570  -57.5663 H         1 UNK         0.0848 
     91 H91        24.8690  -48.4328  -56.7243 H         1 UNK         0.3144 
     92 H92        25.3683  -49.8969  -58.8376 H         1 UNK         0.0727 
     93 H93        27.5042  -50.3797  -60.0316 H         1 UNK         0.0790 
     94 H94        28.0276  -48.7146  -59.7810 H         1 UNK         0.0790 
     95 H95        26.6316  -49.0597  -60.7927 H         1 UNK         0.0790 
     96 H96        27.9532  -49.8215  -57.5559 H         1 UNK         0.3215 
     97 H97        26.7374  -50.4583  -54.2442 H         1 UNK         0.0863 
     98 H98        28.5279  -52.1900  -54.4565 H         1 UNK         0.0808 
     99 H99        28.4484  -52.0729  -56.2129 H         1 UNK         0.0808 
    100 H100       27.0686  -52.6732  -55.3079 H         1 UNK         0.0808 
    101 H101       29.3629  -49.9157  -55.1795 H         1 UNK         0.3118 
    102 H102       29.2753  -46.3489  -54.9458 H         1 UNK         0.0546 
    103 H103       29.8415  -47.0401  -52.7179 H         1 UNK         0.0828 
    104 H104       31.3438  -47.0986  -53.6259 H         1 UNK         0.0828 
    105 H105       30.4764  -48.5838  -53.2416 H         1 UNK         0.0828 
    106 H106       31.2093  -48.3096  -55.8045 H         1 UNK         0.3005 
    107 H107       30.3626  -48.2457  -59.2310 H         1 UNK         0.1257 
    108 H108       31.6502  -46.1484  -59.0972 H         1 UNK         0.0775 
    109 H109       32.6081  -47.4735  -59.6723 H         1 UNK         0.0775 
    110 H110       34.6300  -44.7649  -57.2016 H         1 UNK         0.0840 
    111 H111       33.8586  -44.7845  -58.7634 H         1 UNK         0.0840 
    112 H112       32.5318  -49.4127  -57.7665 H         1 UNK         0.2987 
    113 H113       30.8078  -52.4095  -56.8877 H         1 UNK         0.0785 
    114 H114       32.9805  -51.9530  -59.0049 H         1 UNK         0.0798 
    115 H115       31.4542  -52.7827  -59.2750 H         1 UNK         0.0798 
    116 H116       32.6367  -53.4729  -58.1774 H         1 UNK         0.0798 
    117 H117       33.5244  -51.7236  -56.5562 H         1 UNK         0.3079 
    118 H118       34.0665  -51.4726  -54.0769 H         1 UNK         0.0794 
    119 H119       33.9546  -48.5688  -55.1249 H         1 UNK         0.0786 
    120 H120       34.8097  -49.8776  -55.9314 H         1 UNK         0.0786 
    121 H121       35.3475  -49.3249  -54.3624 H         1 UNK         0.0786 
    122 H122       32.0324  -49.8000  -53.0477 H         1 UNK         0.3032 
    123 H123       31.9098  -49.1908  -50.9165 H         1 UNK         0.1094 
    124 H124       34.4293  -49.4358  -49.1703 H         1 UNK         0.0794 
    125 H125       32.8016  -49.0773  -48.5995 H         1 UNK         0.0794 
    126 H126       33.1612  -50.6483  -49.2993 H         1 UNK         0.0794 
    127 H127       34.2476  -47.4515  -51.2694 H         1 UNK         0.3016 
@<TRIPOS>BOND
     1    1    2 1    
     2    1   67 1    
     3    1   68 1    
     4    1   69 1    
     5    2    3 2    
     6    2    4 am   BACKBONE|DICT|INTERRES
     7    4    5 1    
     8    4   70 1    
     9    5    6 1    
    10    5   65 1    
    11    5   71 1    
    12    6    7 1    
    13    6   72 1    
    14    6   73 1    
    15    7    8 1    
    16    8    9 1    
    17    8   74 1    
    18    8   75 1    
    19    9   10 ar   
    20    9   14 ar   
    21   10   11 ar   
    22   10   76 1    
    23   11   12 ar   
    24   11   48 1    
    25   12   13 ar   
    26   12   77 1    
    27   13   14 ar   
    28   13   15 1    
    29   14   78 1    
    30   15   16 1    
    31   15   79 1    
    32   15   80 1    
    33   16   17 1    
    34   17   18 1    
    35   17   81 1    
    36   17   82 1    
    37   18   19 1    
    38   18   22 1    
    39   18   83 1    
    40   19   20 am   BACKBONE|DICT|INTERRES
    41   19   21 2    
    42   20   84 1    
    43   20   85 1    
    44   22   23 am   BACKBONE|DICT|INTERRES
    45   22   86 1    
    46   23   24 2    
    47   23   25 1    
    48   25   26 1    
    49   25   27 1    
    50   25   87 1    
    51   26   88 1    
    52   26   89 1    
    53   26   90 1    
    54   27   28 am   BACKBONE|DICT|INTERRES
    55   27   91 1    
    56   28   29 2    
    57   28   30 1    
    58   30   31 1    
    59   30   32 1    
    60   30   92 1    
    61   31   93 1    
    62   31   94 1    
    63   31   95 1    
    64   32   33 am   BACKBONE|DICT|INTERRES
    65   32   96 1    
    66   33   34 2    
    67   33   35 1    
    68   35   36 1    
    69   35   37 1    
    70   35   97 1    
    71   36   98 1    
    72   36   99 1    
    73   36  100 1    
    74   37   38 am   BACKBONE|DICT|INTERRES
    75   37  101 1    
    76   38   39 2    
    77   38   40 1    
    78   40   41 1    
    79   40   42 1    
    80   40  102 1    
    81   41  103 1    
    82   41  104 1    
    83   41  105 1    
    84   42   43 am   BACKBONE|DICT|INTERRES
    85   42  106 1    
    86   43   44 2    
    87   43   45 1    
    88   45   46 1    
    89   45   49 1    
    90   45  107 1    
    91   46   47 1    
    92   46  108 1    
    93   46  109 1    
    94   47   48 1    
    95   48  110 1    
    96   48  111 1    
    97   49   50 am   BACKBONE|DICT|INTERRES
    98   49  112 1    
    99   50   51 2    
   100   50   52 1    
   101   52   53 1    
   102   52   54 1    
   103   52  113 1    
   104   53  114 1    
   105   53  115 1    
   106   53  116 1    
   107   54   55 am   BACKBONE|DICT|INTERRES
   108   54  117 1    
   109   55   56 2    
   110   55   57 1    
   111   57   58 1    
   112   57   59 1    
   113   57  118 1    
   114   58  119 1    
   115   58  120 1    
   116   58  121 1    
   117   59   60 am   BACKBONE|DICT|INTERRES
   118   59  122 1    
   119   60   61 2    
   120   60   62 1    
   121   62   63 1    
   122   62   64 1    
   123   62  123 1    
   124   63  124 1    
   125   63  125 1    
   126   63  126 1    
   127   64   65 am   BACKBONE|DICT|INTERRES
   128   64  127 1    
   129   65   66 2    
@<TRIPOS>SUBSTRUCTURE
     1 UNK         1 GROUP             0       ****    0 ROOT    
