@<TRIPOS>MOLECULE
3R134
127   129    1
SMALL
USER_CHARGES


@<TRIPOS>ATOM
      1 CA         34.6837  -44.5621  -59.8256 C.3       0 UNK        -0.1968 
      2 C          33.9977  -45.0108  -58.5435 C.2       0 UNK         0.4852 
      3 O          33.0035  -44.4071  -58.1411 O.2       0 UNK        -0.5359 
      4 N          34.5221  -46.0614  -57.9048 N.am      1 UNK        -0.4300 
      5 CA         34.0000  -46.6803  -56.6882 C.3       1 UNK         0.0863 
      6 C6         34.2087  -45.8042  -55.4167 C.3       11 UNK        -0.0953 
      7 S7         32.7209  -45.7834  -54.3624 S.3       11 UNK        -0.2369 
      8 C8         32.4084  -43.9915  -54.2628 C.3       11 UNK         0.0226 
      9 C9         31.0500  -43.6879  -53.6493 C.ar      11 UNK        -0.0699 
     10 C10        30.7938  -44.0011  -52.3116 C.ar      11 UNK        -0.0804 
     11 C11        29.5349  -43.7554  -51.7581 C.ar      11 UNK        -0.0871 
     12 C12        28.5405  -43.1690  -52.5448 C.ar      11 UNK        -0.1008 
     13 C13        28.7812  -42.8356  -53.8798 C.ar      11 UNK        -0.0735 
     14 C14        30.0468  -43.0949  -54.4230 C.ar      11 UNK        -0.0945 
     15 C15        27.6257  -42.2295  -54.6770 C.3       11 UNK         0.0169 
     16 S16        28.0067  -41.6897  -56.3794 S.3       11 UNK        -0.2669 
     17 C17        26.3243  -41.2538  -56.9515 C.3       11 UNK        -0.0850 
     18 CA         25.7108  -42.2782  -57.9455 C.3       10 UNK         0.0855 
     19 C          26.2235  -42.0718  -59.4027 C.2       10 UNK         0.5543 
     20 N          26.7901  -43.0689  -60.0711 N.am      10 UNK        -0.7343 
     21 O          26.0845  -40.9797  -59.9486 O.2       10 UNK        -0.5027 
     22 N          25.8181  -43.6539  -57.4358 N.am      10 UNK        -0.4495 
     23 C          25.0035  -44.6674  -57.7492 C.2       10 UNK         0.4903 
     24 O          23.9815  -44.5362  -58.4249 O.2       10 UNK        -0.4860 
     25 CA         25.4108  -46.0614  -57.2209 C.3       9 UNK         0.0227 
     26 CB         24.7360  -47.2062  -58.0046 C.3       9 UNK        -0.1964 
     27 N          26.8655  -46.2770  -57.1552 N.am      9 UNK        -0.4231 
     28 C          27.7485  -46.1457  -58.1605 C.2       9 UNK         0.5014 
     29 O          27.4509  -45.7910  -59.3013 O.2       9 UNK        -0.5270 
     30 CA         29.2143  -46.4525  -57.8324 C.3       8 UNK         0.0284 
     31 CB         29.8117  -45.3599  -56.9353 C.3       8 UNK        -0.1977 
     32 N          29.3330  -47.7532  -57.1785 N.am      8 UNK        -0.4342 
     33 C          29.4476  -48.9180  -57.8316 C.2       8 UNK         0.5039 
     34 O          29.5738  -49.0130  -59.0530 O.2       8 UNK        -0.5547 
     35 CA         29.4086  -50.2000  -56.9824 C.3       7 UNK         0.0281 
     36 CB         30.8302  -50.6232  -56.5897 C.3       7 UNK        -0.1963 
     37 N          28.5878  -50.0468  -55.7783 N.am      7 UNK        -0.4444 
     38 C          27.2465  -49.9900  -55.7994 C.2       7 UNK         0.5104 
     39 O          26.5777  -50.1821  -56.8144 O.2       7 UNK        -0.5100 
     40 CA         26.5134  -49.6503  -54.4869 C.3       6 UNK         0.0396 
     41 CB         25.8721  -50.9137  -53.8910 C.3       6 UNK        -0.1801 
     42 N          27.3541  -49.0189  -53.4670 N.am      6 UNK        -0.4747 
     43 C          27.9653  -47.8294  -53.5732 C.2       6 UNK         0.5012 
     44 O          27.8648  -47.0986  -54.5608 O.2       6 UNK        -0.5003 
     45 CA         28.8909  -47.4283  -52.4044 C.3       5 UNK         0.0782 
     46 C46        28.1248  -46.5595  -51.3755 C.3       11 UNK        -0.0868 
     47 S47        29.2348  -45.9446  -50.0577 S.3       11 UNK        -0.2515 
     48 C48        29.2322  -44.1400  -50.3170 C.3       11 UNK         0.0199 
     49 N          29.5109  -48.5899  -51.7483 N.am      5 UNK        -0.4607 
     50 C          30.3116  -49.4942  -52.3228 C.2       4 UNK         0.5031 
     51 O          30.6177  -49.4921  -53.5172 O.2       4 UNK        -0.5119 
     52 CA         30.7869  -50.6317  -51.4163 C.3       4 UNK         0.0263 
     53 CB         29.7832  -51.7979  -51.4398 C.3       4 UNK        -0.1967 
     54 N          32.0895  -51.0995  -51.8769 N.am      4 UNK        -0.4237 
     55 C          33.0926  -51.4887  -51.0802 C.2       3 UNK         0.4908 
     56 O          33.0023  -51.5428  -49.8525 O.2       3 UNK        -0.5102 
     57 CA         34.4239  -51.9032  -51.7397 C.3       3 UNK         0.0241 
     58 CB         34.6307  -53.4229  -51.6188 C.3       3 UNK        -0.1971 
     59 N          34.5646  -51.5193  -53.1484 N.am      3 UNK        -0.4139 
     60 C          34.6831  -50.2651  -53.6038 C.2       2 UNK         0.5016 
     61 O          34.6592  -49.2701  -52.8761 O.2       2 UNK        -0.5319 
     62 CA         34.8531  -50.0880  -55.1208 C.3       2 UNK         0.0286 
     63 CB         34.2765  -51.2500  -55.9594 C.3       2 UNK        -0.1963 
     64 N          34.2524  -48.8142  -55.5136 N.am      2 UNK        -0.4790 
     65 C          34.6488  -48.0699  -56.5499 C.2       1 UNK         0.5024 
     66 O          35.5082  -48.4310  -57.3607 O.2       1 UNK        -0.4888 
     67 H67        33.9881  -44.6185  -60.6623 H         1 UNK         0.0892 
     68 H68        35.0189  -43.5297  -59.7295 H         1 UNK         0.0892 
     69 H69        35.5503  -45.1793  -60.0623 H         1 UNK         0.0892 
     70 H70        35.3152  -46.5616  -58.2905 H         1 UNK         0.3107 
     71 H71        32.9350  -46.8521  -56.8596 H         1 UNK         0.0773 
     72 H72        35.0577  -46.1373  -54.8161 H         1 UNK         0.0680 
     73 H73        34.4539  -44.7779  -55.6928 H         1 UNK         0.0680 
     74 H74        32.4742  -43.5629  -55.2645 H         1 UNK         0.0650 
     75 H75        33.1919  -43.5202  -53.6680 H         1 UNK         0.0650 
     76 H76        31.5650  -44.4637  -51.7105 H         1 UNK         0.1397 
     77 H77        27.5633  -42.9830  -52.1195 H         1 UNK         0.1363 
     78 H78        30.2595  -42.8550  -55.4544 H         1 UNK         0.1355 
     79 H79        26.8211  -42.9653  -54.7170 H         1 UNK         0.0707 
     80 H80        27.2356  -41.3707  -54.1282 H         1 UNK         0.0707 
     81 H81        25.6649  -41.1611  -56.0872 H         1 UNK         0.1034 
     82 H82        26.3527  -40.2524  -57.3857 H         1 UNK         0.1034 
     83 H83        24.6457  -42.0445  -58.0000 H         1 UNK         0.0482 
     84 H84        27.1041  -42.9067  -61.0141 H         1 UNK         0.3460 
     85 H85        26.9080  -43.9890  -59.6574 H         1 UNK         0.3460 
     86 H86        26.6517  -43.8512  -56.9024 H         1 UNK         0.2989 
     87 H87        25.0524  -46.1103  -56.1918 H         1 UNK         0.0559 
     88 H88        23.6491  -47.1235  -57.9676 H         1 UNK         0.0848 
     89 H89        24.9961  -48.1787  -57.5891 H         1 UNK         0.0848 
     90 H90        25.0281  -47.2021  -59.0553 H         1 UNK         0.0848 
     91 H91        27.2239  -46.5464  -56.2406 H         1 UNK         0.3144 
     92 H92        29.7785  -46.4599  -58.7677 H         1 UNK         0.0727 
     93 H93        29.3231  -45.3172  -55.9620 H         1 UNK         0.0790 
     94 H94        29.7118  -44.3773  -57.3983 H         1 UNK         0.0790 
     95 H95        30.8745  -45.5262  -56.7659 H         1 UNK         0.0790 
     96 H96        29.1886  -47.7717  -56.1770 H         1 UNK         0.3215 
     97 H97        28.9759  -50.9941  -57.5953 H         1 UNK         0.0863 
     98 H98        30.8198  -51.5252  -55.9778 H         1 UNK         0.0808 
     99 H99        31.3458  -49.8408  -56.0317 H         1 UNK         0.0808 
    100 H100       31.4296  -50.8363  -57.4758 H         1 UNK         0.0808 
    101 H101       29.0811  -49.8898  -54.9057 H         1 UNK         0.3118 
    102 H102       25.7165  -48.9468  -54.7376 H         1 UNK         0.0546 
    103 H103       26.6233  -51.6487  -53.5990 H         1 UNK         0.0828 
    104 H104       25.2106  -51.3942  -54.6134 H         1 UNK         0.0828 
    105 H105       25.2705  -50.6788  -53.0129 H         1 UNK         0.0828 
    106 H106       27.5079  -49.5488  -52.6215 H         1 UNK         0.3005 
    107 H107       29.6946  -46.8272  -52.8375 H         1 UNK         0.1257 
    108 H108       27.3288  -47.1383  -50.9030 H         1 UNK         0.0775 
    109 H109       27.6279  -45.7212  -51.8653 H         1 UNK         0.0775 
    110 H110       28.2656  -43.7424  -50.0034 H         1 UNK         0.0840 
    111 H111       29.9751  -43.6862  -49.6596 H         1 UNK         0.0840 
    112 H112       29.3237  -48.6714  -50.7591 H         1 UNK         0.2987 
    113 H113       30.8701  -50.2450  -50.3980 H         1 UNK         0.0785 
    114 H114       28.8006  -51.4800  -51.0892 H         1 UNK         0.0798 
    115 H115       30.1088  -52.6118  -50.7917 H         1 UNK         0.0798 
    116 H116       29.6582  -52.2017  -52.4455 H         1 UNK         0.0798 
    117 H117       32.2464  -51.0117  -52.8720 H         1 UNK         0.3079 
    118 H118       35.2203  -51.4065  -51.1811 H         1 UNK         0.0794 
    119 H119       35.6089  -53.7229  -51.9955 H         1 UNK         0.0786 
    120 H120       33.8714  -53.9786  -52.1707 H         1 UNK         0.0786 
    121 H121       34.5765  -53.7447  -50.5777 H         1 UNK         0.0786 
    122 H122       34.5869  -52.2747  -53.8184 H         1 UNK         0.3032 
    123 H123       35.9294  -50.0334  -55.3012 H         1 UNK         0.1094 
    124 H124       33.2553  -51.4913  -55.6690 H         1 UNK         0.0794 
    125 H125       34.2732  -51.0146  -57.0238 H         1 UNK         0.0794 
    126 H126       34.8741  -52.1547  -55.8423 H         1 UNK         0.0794 
    127 H127       33.6094  -48.4163  -54.8387 H         1 UNK         0.3016 
@<TRIPOS>BOND
     1    1    2 1    
     2    1   67 1    
     3    1   68 1    
     4    1   69 1    
     5    2    3 2    
     6    2    4 am   BACKBONE|DICT|INTERRES
     7    4    5 1    
     8    4   70 1    
     9    5    6 1    
    10    5   65 1    
    11    5   71 1    
    12    6    7 1    
    13    6   72 1    
    14    6   73 1    
    15    7    8 1    
    16    8    9 1    
    17    8   74 1    
    18    8   75 1    
    19    9   10 ar   
    20    9   14 ar   
    21   10   11 ar   
    22   10   76 1    
    23   11   12 ar   
    24   11   48 1    
    25   12   13 ar   
    26   12   77 1    
    27   13   14 ar   
    28   13   15 1    
    29   14   78 1    
    30   15   16 1    
    31   15   79 1    
    32   15   80 1    
    33   16   17 1    
    34   17   18 1    
    35   17   81 1    
    36   17   82 1    
    37   18   19 1    
    38   18   22 1    
    39   18   83 1    
    40   19   20 am   BACKBONE|DICT|INTERRES
    41   19   21 2    
    42   20   84 1    
    43   20   85 1    
    44   22   23 am   BACKBONE|DICT|INTERRES
    45   22   86 1    
    46   23   24 2    
    47   23   25 1    
    48   25   26 1    
    49   25   27 1    
    50   25   87 1    
    51   26   88 1    
    52   26   89 1    
    53   26   90 1    
    54   27   28 am   BACKBONE|DICT|INTERRES
    55   27   91 1    
    56   28   29 2    
    57   28   30 1    
    58   30   31 1    
    59   30   32 1    
    60   30   92 1    
    61   31   93 1    
    62   31   94 1    
    63   31   95 1    
    64   32   33 am   BACKBONE|DICT|INTERRES
    65   32   96 1    
    66   33   34 2    
    67   33   35 1    
    68   35   36 1    
    69   35   37 1    
    70   35   97 1    
    71   36   98 1    
    72   36   99 1    
    73   36  100 1    
    74   37   38 am   BACKBONE|DICT|INTERRES
    75   37  101 1    
    76   38   39 2    
    77   38   40 1    
    78   40   41 1    
    79   40   42 1    
    80   40  102 1    
    81   41  103 1    
    82   41  104 1    
    83   41  105 1    
    84   42   43 am   BACKBONE|DICT|INTERRES
    85   42  106 1    
    86   43   44 2    
    87   43   45 1    
    88   45   46 1    
    89   45   49 1    
    90   45  107 1    
    91   46   47 1    
    92   46  108 1    
    93   46  109 1    
    94   47   48 1    
    95   48  110 1    
    96   48  111 1    
    97   49   50 am   BACKBONE|DICT|INTERRES
    98   49  112 1    
    99   50   51 2    
   100   50   52 1    
   101   52   53 1    
   102   52   54 1    
   103   52  113 1    
   104   53  114 1    
   105   53  115 1    
   106   53  116 1    
   107   54   55 am   BACKBONE|DICT|INTERRES
   108   54  117 1    
   109   55   56 2    
   110   55   57 1    
   111   57   58 1    
   112   57   59 1    
   113   57  118 1    
   114   58  119 1    
   115   58  120 1    
   116   58  121 1    
   117   59   60 am   BACKBONE|DICT|INTERRES
   118   59  122 1    
   119   60   61 2    
   120   60   62 1    
   121   62   63 1    
   122   62   64 1    
   123   62  123 1    
   124   63  124 1    
   125   63  125 1    
   126   63  126 1    
   127   64   65 am   BACKBONE|DICT|INTERRES
   128   64  127 1    
   129   65   66 2    
@<TRIPOS>SUBSTRUCTURE
     1 UNK         1 GROUP             0       ****    0 ROOT    
