@<TRIPOS>MOLECULE
3R134
127   129    1
SMALL
USER_CHARGES


@<TRIPOS>ATOM
      1 CA         36.3236  -41.9893  -57.6974 C.3       0 UNK        -0.1968 
      2 C          35.4059  -43.0161  -57.0517 C.2       0 UNK         0.4852 
      3 O          34.5029  -43.5324  -57.7123 O.2       0 UNK        -0.5359 
      4 N          35.6282  -43.3257  -55.7676 N.am      1 UNK        -0.4300 
      5 CA         34.8676  -44.3066  -54.9860 C.3       1 UNK         0.0863 
      6 C6         34.8924  -43.9480  -53.4745 C.3       11 UNK        -0.0953 
      7 S7         33.3930  -44.5361  -52.6245 S.3       11 UNK        -0.2369 
      8 C8         32.4278  -42.9970  -52.5218 C.3       11 UNK         0.0226 
      9 C9         30.9477  -43.3037  -52.3751 C.ar      11 UNK        -0.0699 
     10 C10        30.4093  -43.6206  -51.1253 C.ar      11 UNK        -0.0804 
     11 C11        29.0566  -43.9528  -51.0008 C.ar      11 UNK        -0.0871 
     12 C12        28.2384  -43.9528  -52.1340 C.ar      11 UNK        -0.1008 
     13 C13        28.7726  -43.6558  -53.3906 C.ar      11 UNK        -0.0735 
     14 C14        30.1220  -43.3084  -53.5014 C.ar      11 UNK        -0.0945 
     15 C15        27.9033  -43.7500  -54.6347 C.3       11 UNK         0.0169 
     16 S16        27.7039  -45.4748  -55.1954 S.3       11 UNK        -0.2669 
     17 C17        29.4077  -45.9331  -55.6634 C.3       11 UNK        -0.0850 
     18 CA         29.7428  -45.5138  -57.1178 C.3       10 UNK         0.0855 
     19 C          31.2751  -45.3092  -57.2878 C.2       10 UNK         0.5543 
     20 N          31.7287  -44.0650  -57.3511 N.am      10 UNK        -0.7343 
     21 O          32.0479  -46.2628  -57.3259 O.2       10 UNK        -0.5027 
     22 N          29.1699  -46.4676  -58.0819 N.am      10 UNK        -0.4495 
     23 C          29.2908  -46.3949  -59.4147 C.2       10 UNK         0.4903 
     24 O          29.8100  -45.4520  -60.0126 O.2       10 UNK        -0.4860 
     25 CA         28.7475  -47.5795  -60.2317 C.3       9 UNK         0.0227 
     26 CB         29.8350  -48.6549  -60.3946 C.3       9 UNK        -0.1964 
     27 N          27.5415  -48.1923  -59.6692 N.am      9 UNK        -0.4231 
     28 C          26.3236  -47.6299  -59.6650 C.2       9 UNK         0.5014 
     29 O          26.0884  -46.5020  -60.1007 O.2       9 UNK        -0.5270 
     30 CA         25.1599  -48.4785  -59.1157 C.3       8 UNK         0.0284 
     31 CB         24.3729  -49.1190  -60.2715 C.3       8 UNK        -0.1977 
     32 N          25.5973  -49.5299  -58.1907 N.am      8 UNK        -0.4342 
     33 C          25.9595  -49.3019  -56.9226 C.2       8 UNK         0.5039 
     34 O          25.9164  -48.1915  -56.3927 O.2       8 UNK        -0.5547 
     35 CA         26.5148  -50.5060  -56.1476 C.3       7 UNK         0.0281 
     36 CB         28.0056  -50.6970  -56.4685 C.3       7 UNK        -0.1963 
     37 N          26.3595  -50.3260  -54.7033 N.am      7 UNK        -0.4444 
     38 C          25.2242  -50.5742  -54.0353 C.2       7 UNK         0.5104 
     39 O          24.2042  -51.0102  -54.5722 O.2       7 UNK        -0.5100 
     40 CA         25.2111  -50.3403  -52.5118 C.3       6 UNK         0.0396 
     41 CB         25.2571  -51.6845  -51.7663 C.3       6 UNK        -0.1801 
     42 N          26.3090  -49.5002  -52.0319 N.am      6 UNK        -0.4747 
     43 C          26.3569  -48.1642  -52.1321 C.2       6 UNK         0.5012 
     44 O          25.4430  -47.4832  -52.5976 O.2       6 UNK        -0.5003 
     45 CA         27.6251  -47.4653  -51.5906 C.3       5 UNK         0.0782 
     46 C46        27.3191  -46.8819  -50.1841 C.3       11 UNK        -0.0868 
     47 S47        28.7485  -46.1246  -49.3345 S.3       11 UNK        -0.2515 
     48 C48        28.4956  -44.3485  -49.6457 C.3       11 UNK         0.0199 
     49 N          28.8366  -48.3008  -51.5925 N.am      5 UNK        -0.4607 
     50 C          29.3728  -48.9144  -52.6555 C.2       4 UNK         0.5031 
     51 O          28.8289  -48.9789  -53.7588 O.2       4 UNK        -0.5119 
     52 CA         30.7122  -49.6316  -52.4160 C.3       4 UNK         0.0263 
     53 CB         30.4791  -50.9660  -51.6866 C.3       4 UNK        -0.1967 
     54 N          31.4307  -49.8984  -53.6646 N.am      4 UNK        -0.4237 
     55 C          31.9948  -48.9658  -54.4429 C.2       3 UNK         0.4908 
     56 O          32.0281  -47.7640  -54.1681 O.2       3 UNK        -0.5102 
     57 CA         32.6117  -49.4801  -55.7511 C.3       3 UNK         0.0241 
     58 CB         31.5183  -49.7674  -56.7932 C.3       3 UNK        -0.1971 
     59 N          33.5215  -48.4807  -56.3029 N.am      3 UNK        -0.4139 
     60 C          34.8284  -48.6561  -56.5230 C.2       2 UNK         0.5016 
     61 O          35.4317  -49.7083  -56.3056 O.2       2 UNK        -0.5319 
     62 CA         35.6002  -47.4546  -57.0912 C.3       2 UNK         0.0286 
     63 CB         35.4941  -47.4220  -58.6244 C.3       2 UNK        -0.1963 
     64 N          35.1504  -46.1693  -56.5538 N.am      2 UNK        -0.4790 
     65 C          35.3595  -45.7389  -55.3029 C.2       1 UNK         0.5024 
     66 O          35.9679  -46.3961  -54.4561 O.2       1 UNK        -0.4888 
     67 H67        37.0705  -41.6123  -56.9989 H         1 UNK         0.0892 
     68 H68        36.8445  -42.4338  -58.5449 H         1 UNK         0.0892 
     69 H69        35.7410  -41.1433  -58.0607 H         1 UNK         0.0892 
     70 H70        36.4065  -42.8972  -55.2867 H         1 UNK         0.3107 
     71 H71        33.8283  -44.2524  -55.3191 H         1 UNK         0.0773 
     72 H72        35.7752  -44.3428  -52.9687 H         1 UNK         0.0680 
     73 H73        34.9506  -42.8665  -53.3410 H         1 UNK         0.0680 
     74 H74        32.5937  -42.3965  -53.4179 H         1 UNK         0.0650 
     75 H75        32.7790  -42.4019  -51.6776 H         1 UNK         0.0650 
     76 H76        31.0509  -43.6375  -50.2547 H         1 UNK         0.1397 
     77 H77        27.1950  -44.2245  -52.0471 H         1 UNK         0.1363 
     78 H78        30.5411  -43.0830  -54.4726 H         1 UNK         0.1355 
     79 H79        28.3204  -43.1497  -55.4445 H         1 UNK         0.0707 
     80 H80        26.9178  -43.3328  -54.4229 H         1 UNK         0.0707 
     81 H81        29.5229  -47.0117  -55.5414 H         1 UNK         0.1034 
     82 H82        30.1054  -45.5071  -54.9432 H         1 UNK         0.1034 
     83 H83        29.2652  -44.5530  -57.3195 H         1 UNK         0.0482 
     84 H84        31.0984  -43.2800  -57.3431 H         1 UNK         0.3460 
     85 H85        32.7238  -43.9056  -57.4895 H         1 UNK         0.3460 
     86 H86        28.6874  -47.2589  -57.6849 H         1 UNK         0.2989 
     87 H87        28.4971  -47.2033  -61.2261 H         1 UNK         0.0559 
     88 H88        30.1078  -49.1047  -59.4395 H         1 UNK         0.0848 
     89 H89        30.7437  -48.2290  -60.8228 H         1 UNK         0.0848 
     90 H90        29.5093  -49.4530  -61.0620 H         1 UNK         0.0848 
     91 H91        27.6319  -49.1281  -59.3043 H         1 UNK         0.3144 
     92 H92        24.4868  -47.8034  -58.5823 H         1 UNK         0.0727 
     93 H93        23.5035  -49.6654  -59.9052 H         1 UNK         0.0790 
     94 H94        24.9884  -49.8112  -60.8475 H         1 UNK         0.0790 
     95 H95        24.0065  -48.3580  -60.9621 H         1 UNK         0.0790 
     96 H96        25.6440  -50.4711  -58.5563 H         1 UNK         0.3215 
     97 H97        25.9746  -51.4053  -56.4522 H         1 UNK         0.0863 
     98 H98        28.4400  -51.5037  -55.8778 H         1 UNK         0.0808 
     99 H99        28.5735  -49.7889  -56.2638 H         1 UNK         0.0808 
    100 H100       28.1568  -50.9477  -57.5189 H         1 UNK         0.0808 
    101 H101       27.1339  -49.8781  -54.2207 H         1 UNK         0.3118 
    102 H102       24.2666  -49.8504  -52.2658 H         1 UNK         0.0546 
    103 H103       24.4297  -52.3278  -52.0692 H         1 UNK         0.0828 
    104 H104       25.1765  -51.5446  -50.6882 H         1 UNK         0.0828 
    105 H105       26.1813  -52.2273  -51.9681 H         1 UNK         0.0828 
    106 H106       27.1069  -49.9739  -51.6335 H         1 UNK         0.3005 
    107 H107       27.8296  -46.6412  -52.2753 H         1 UNK         0.1257 
    108 H108       26.9503  -47.6710  -49.5254 H         1 UNK         0.0775 
    109 H109       26.5112  -46.1502  -50.2454 H         1 UNK         0.0775 
    110 H110       27.4379  -44.0920  -49.5697 H         1 UNK         0.0840 
    111 H111       28.9989  -43.7807  -48.8615 H         1 UNK         0.0840 
    112 H112       29.3464  -48.3085  -50.7205 H         1 UNK         0.2987 
    113 H113       31.3395  -48.9896  -51.7936 H         1 UNK         0.0785 
    114 H114       29.9901  -50.8110  -50.7240 H         1 UNK         0.0798 
    115 H115       31.4202  -51.4789  -51.4871 H         1 UNK         0.0798 
    116 H116       29.8469  -51.6386  -52.2682 H         1 UNK         0.0798 
    117 H117       31.4185  -50.8539  -53.9892 H         1 UNK         0.3079 
    118 H118       33.1474  -50.4068  -55.5348 H         1 UNK         0.0794 
    119 H119       30.8921  -48.8918  -56.9701 H         1 UNK         0.0786 
    120 H120       30.8714  -50.5801  -56.4643 H         1 UNK         0.0786 
    121 H121       31.9503  -50.0676  -57.7480 H         1 UNK         0.0786 
    122 H122       33.1053  -47.5719  -56.4992 H         1 UNK         0.3032 
    123 H123       36.6512  -47.5844  -56.8229 H         1 UNK         0.1094 
    124 H124       34.4655  -47.2653  -58.9530 H         1 UNK         0.0794 
    125 H125       36.1063  -46.6254  -59.0477 H         1 UNK         0.0794 
    126 H126       35.8376  -48.3613  -59.0601 H         1 UNK         0.0794 
    127 H127       34.6647  -45.5464  -57.1912 H         1 UNK         0.3016 
@<TRIPOS>BOND
     1    1    2 1    
     2    1   67 1    
     3    1   68 1    
     4    1   69 1    
     5    2    3 2    
     6    2    4 am   BACKBONE|DICT|INTERRES
     7    4    5 1    
     8    4   70 1    
     9    5    6 1    
    10    5   65 1    
    11    5   71 1    
    12    6    7 1    
    13    6   72 1    
    14    6   73 1    
    15    7    8 1    
    16    8    9 1    
    17    8   74 1    
    18    8   75 1    
    19    9   10 ar   
    20    9   14 ar   
    21   10   11 ar   
    22   10   76 1    
    23   11   12 ar   
    24   11   48 1    
    25   12   13 ar   
    26   12   77 1    
    27   13   14 ar   
    28   13   15 1    
    29   14   78 1    
    30   15   16 1    
    31   15   79 1    
    32   15   80 1    
    33   16   17 1    
    34   17   18 1    
    35   17   81 1    
    36   17   82 1    
    37   18   19 1    
    38   18   22 1    
    39   18   83 1    
    40   19   20 am   BACKBONE|DICT|INTERRES
    41   19   21 2    
    42   20   84 1    
    43   20   85 1    
    44   22   23 am   BACKBONE|DICT|INTERRES
    45   22   86 1    
    46   23   24 2    
    47   23   25 1    
    48   25   26 1    
    49   25   27 1    
    50   25   87 1    
    51   26   88 1    
    52   26   89 1    
    53   26   90 1    
    54   27   28 am   BACKBONE|DICT|INTERRES
    55   27   91 1    
    56   28   29 2    
    57   28   30 1    
    58   30   31 1    
    59   30   32 1    
    60   30   92 1    
    61   31   93 1    
    62   31   94 1    
    63   31   95 1    
    64   32   33 am   BACKBONE|DICT|INTERRES
    65   32   96 1    
    66   33   34 2    
    67   33   35 1    
    68   35   36 1    
    69   35   37 1    
    70   35   97 1    
    71   36   98 1    
    72   36   99 1    
    73   36  100 1    
    74   37   38 am   BACKBONE|DICT|INTERRES
    75   37  101 1    
    76   38   39 2    
    77   38   40 1    
    78   40   41 1    
    79   40   42 1    
    80   40  102 1    
    81   41  103 1    
    82   41  104 1    
    83   41  105 1    
    84   42   43 am   BACKBONE|DICT|INTERRES
    85   42  106 1    
    86   43   44 2    
    87   43   45 1    
    88   45   46 1    
    89   45   49 1    
    90   45  107 1    
    91   46   47 1    
    92   46  108 1    
    93   46  109 1    
    94   47   48 1    
    95   48  110 1    
    96   48  111 1    
    97   49   50 am   BACKBONE|DICT|INTERRES
    98   49  112 1    
    99   50   51 2    
   100   50   52 1    
   101   52   53 1    
   102   52   54 1    
   103   52  113 1    
   104   53  114 1    
   105   53  115 1    
   106   53  116 1    
   107   54   55 am   BACKBONE|DICT|INTERRES
   108   54  117 1    
   109   55   56 2    
   110   55   57 1    
   111   57   58 1    
   112   57   59 1    
   113   57  118 1    
   114   58  119 1    
   115   58  120 1    
   116   58  121 1    
   117   59   60 am   BACKBONE|DICT|INTERRES
   118   59  122 1    
   119   60   61 2    
   120   60   62 1    
   121   62   63 1    
   122   62   64 1    
   123   62  123 1    
   124   63  124 1    
   125   63  125 1    
   126   63  126 1    
   127   64   65 am   BACKBONE|DICT|INTERRES
   128   64  127 1    
   129   65   66 2    
@<TRIPOS>SUBSTRUCTURE
     1 UNK         1 GROUP             0       ****    0 ROOT    
