@<TRIPOS>MOLECULE
3R134
127   129    1
SMALL
USER_CHARGES


@<TRIPOS>ATOM
      1 CA         36.3898  -43.7664  -48.4406 C.3       0 UNK        -0.1968 
      2 C          36.0065  -44.4096  -49.7655 C.2       0 UNK         0.4852 
      3 O          36.8739  -44.6242  -50.6140 O.2       0 UNK        -0.5359 
      4 N          34.7147  -44.7091  -49.9515 N.am      1 UNK        -0.4300 
      5 CA         34.1679  -45.3716  -51.1394 C.3       1 UNK         0.0863 
      6 C6         32.6212  -45.3011  -51.1780 C.3       11 UNK        -0.0953 
      7 S7         31.9972  -43.5904  -51.2463 S.3       11 UNK        -0.2369 
      8 C8         30.4278  -43.8285  -52.1500 C.3       11 UNK         0.0226 
      9 C9         30.5297  -43.8973  -53.6764 C.ar      11 UNK        -0.0699 
     10 C10        31.7388  -44.0920  -54.3610 C.ar      11 UNK        -0.0804 
     11 C11        31.7719  -44.1311  -55.7588 C.ar      11 UNK        -0.0871 
     12 C12        30.5859  -43.9666  -56.4780 C.ar      11 UNK        -0.1008 
     13 C13        29.3708  -43.7962  -55.8129 C.ar      11 UNK        -0.0735 
     14 C14        29.3505  -43.7623  -54.4164 C.ar      11 UNK        -0.0945 
     15 C15        28.0801  -43.6770  -56.6048 C.3       11 UNK         0.0169 
     16 S16        27.4189  -41.9809  -56.5590 S.3       11 UNK        -0.2669 
     17 C17        26.4574  -41.9051  -58.1109 C.3       11 UNK        -0.0850 
     18 CA         24.9559  -42.2871  -57.9403 C.3       10 UNK         0.0855 
     19 C          24.1016  -41.9269  -59.1961 C.2       10 UNK         0.5543 
     20 N          23.0765  -42.6963  -59.5417 N.am      10 UNK        -0.7343 
     21 O          24.3465  -40.9155  -59.8496 O.2       10 UNK        -0.5027 
     22 N          24.7567  -43.6606  -57.4358 N.am      10 UNK        -0.4495 
     23 C          25.1422  -44.7892  -58.0469 C.2       10 UNK         0.4903 
     24 O          25.7262  -44.8147  -59.1312 O.2       10 UNK        -0.4860 
     25 CA         24.8199  -46.0896  -57.2868 C.3       9 UNK         0.0227 
     26 CB         23.3328  -46.4730  -57.4319 C.3       9 UNK        -0.1964 
     27 N          25.7021  -47.2114  -57.6343 N.am      9 UNK        -0.4231 
     28 C          25.7798  -47.9025  -58.7850 C.2       9 UNK         0.5014 
     29 O          25.0461  -47.7263  -59.7592 O.2       9 UNK        -0.5270 
     30 CA         26.8543  -49.0052  -58.8670 C.3       8 UNK         0.0284 
     31 CB         28.0815  -48.5086  -59.6487 C.3       8 UNK        -0.1977 
     32 N          27.2770  -49.5011  -57.5538 N.am      8 UNK        -0.4342 
     33 C          26.5092  -50.2570  -56.7552 C.2       8 UNK         0.5039 
     34 O          25.3960  -50.6731  -57.0792 O.2       8 UNK        -0.5547 
     35 CA         27.0509  -50.6074  -55.3579 C.3       7 UNK         0.0281 
     36 CB         27.5989  -52.0436  -55.3501 C.3       7 UNK        -0.1963 
     37 N          28.0751  -49.6887  -54.8476 N.am      7 UNK        -0.4444 
     38 C          27.8842  -48.3876  -54.5816 C.2       7 UNK         0.5104 
     39 O          26.8177  -47.8000  -54.7664 O.2       7 UNK        -0.5100 
     40 CA         29.1031  -47.5967  -54.0739 C.3       6 UNK         0.0396 
     41 CB         29.3502  -47.8601  -52.5808 C.3       6 UNK        -0.1801 
     42 N          30.3251  -47.8799  -54.8287 N.am      6 UNK        -0.4747 
     43 C          30.4811  -47.6632  -56.1438 C.2       6 UNK         0.5012 
     44 O          29.6050  -47.1964  -56.8715 O.2       6 UNK        -0.5003 
     45 CA         31.8134  -48.1285  -56.7586 C.3       5 UNK         0.0782 
     46 C46        32.9872  -47.1642  -56.4493 C.3       11 UNK        -0.0868 
     47 S47        33.0672  -45.7664  -57.6155 S.3       11 UNK        -0.2515 
     48 C48        33.0910  -44.3278  -56.4948 C.3       11 UNK         0.0199 
     49 N          32.1129  -49.4961  -56.3312 N.am      5 UNK        -0.4607 
     50 C          31.4782  -50.5883  -56.7780 C.2       4 UNK         0.5031 
     51 O          30.6100  -50.5669  -57.6499 O.2       4 UNK        -0.5119 
     52 CA         31.8680  -51.9322  -56.1367 C.3       4 UNK         0.0263 
     53 CB         32.9842  -52.6091  -56.9479 C.3       4 UNK        -0.1967 
     54 N          32.2903  -51.8080  -54.7382 N.am      4 UNK        -0.4237 
     55 C          31.4778  -51.4537  -53.7326 C.2       3 UNK         0.4908 
     56 O          30.2811  -51.2085  -53.8716 O.2       3 UNK        -0.5102 
     57 CA         32.1198  -51.2909  -52.3462 C.3       3 UNK         0.0241 
     58 CB         32.2741  -52.6553  -51.6552 C.3       3 UNK        -0.1971 
     59 N          33.4118  -50.5949  -52.3680 N.am      3 UNK        -0.4139 
     60 C          33.6020  -49.3589  -52.8484 C.2       2 UNK         0.5016 
     61 O          32.7280  -48.6972  -53.4167 O.2       2 UNK        -0.5319 
     62 CA         35.0095  -48.7634  -52.6992 C.3       2 UNK         0.0286 
     63 CB         35.8219  -48.9621  -53.9883 C.3       2 UNK        -0.1963 
     64 N          34.8938  -47.3338  -52.4124 N.am      2 UNK        -0.4790 
     65 C          34.6092  -46.8459  -51.1988 C.2       1 UNK         0.5024 
     66 O          34.6208  -47.5240  -50.1677 O.2       1 UNK        -0.4888 
     67 H67        37.1081  -44.3936  -47.9133 H         1 UNK         0.0892 
     68 H68        36.8490  -42.7937  -48.6146 H         1 UNK         0.0892 
     69 H69        35.5258  -43.6218  -47.7921 H         1 UNK         0.0892 
     70 H70        34.0485  -44.5187  -49.2171 H         1 UNK         0.3107 
     71 H71        34.5613  -44.8570  -52.0190 H         1 UNK         0.0773 
     72 H72        32.1870  -45.7877  -50.3023 H         1 UNK         0.0680 
     73 H73        32.2412  -45.8457  -52.0452 H         1 UNK         0.0680 
     74 H74        29.9349  -44.7297  -51.7832 H         1 UNK         0.0650 
     75 H75        29.7755  -42.9953  -51.8842 H         1 UNK         0.0650 
     76 H76        32.6637  -44.2058  -53.8165 H         1 UNK         0.1397 
     77 H77        30.6082  -43.9966  -57.5588 H         1 UNK         0.1363 
     78 H78        28.4073  -43.6257  -53.9048 H         1 UNK         0.1355 
     79 H79        28.2424  -43.9905  -57.6373 H         1 UNK         0.0707 
     80 H80        27.3443  -44.3641  -56.1864 H         1 UNK         0.0707 
     81 H81        26.5419  -40.8766  -58.4665 H         1 UNK         0.1034 
     82 H82        26.9342  -42.5123  -58.8812 H         1 UNK         0.1034 
     83 H83        24.5554  -41.6415  -57.1579 H         1 UNK         0.0482 
     84 H84        22.8592  -43.5242  -59.0114 H         1 UNK         0.3460 
     85 H85        22.5226  -42.4501  -60.3470 H         1 UNK         0.3460 
     86 H86        24.2739  -43.7274  -56.5511 H         1 UNK         0.2989 
     87 H87        25.0118  -45.8992  -56.2295 H         1 UNK         0.0559 
     88 H88        23.0440  -46.6032  -58.4752 H         1 UNK         0.0848 
     89 H89        22.6854  -45.7016  -57.0137 H         1 UNK         0.0848 
     90 H90        23.1097  -47.4007  -56.9046 H         1 UNK         0.0848 
     91 H91        26.3550  -47.4680  -56.9026 H         1 UNK         0.3144 
     92 H92        26.4228  -49.8438  -59.4178 H         1 UNK         0.0727 
     93 H93        28.5145  -47.6157  -59.1978 H         1 UNK         0.0790 
     94 H94        27.8086  -48.2508  -60.6727 H         1 UNK         0.0790 
     95 H95        28.8589  -49.2715  -59.7011 H         1 UNK         0.0790 
     96 H96        28.1860  -49.2050  -57.2212 H         1 UNK         0.3215 
     97 H97        26.2045  -50.5634  -54.6693 H         1 UNK         0.0863 
     98 H98        27.8682  -52.3604  -54.3425 H         1 UNK         0.0808 
     99 H99        28.4833  -52.1382  -55.9811 H         1 UNK         0.0808 
    100 H100       26.8553  -52.7507  -55.7207 H         1 UNK         0.0808 
    101 H101       28.9764  -50.1038  -54.6168 H         1 UNK         0.3118 
    102 H102       28.8818  -46.5360  -54.1990 H         1 UNK         0.0546 
    103 H103       30.1728  -47.2535  -52.2029 H         1 UNK         0.0828 
    104 H104       29.5939  -48.9056  -52.3896 H         1 UNK         0.0828 
    105 H105       28.4667  -47.6155  -51.9898 H         1 UNK         0.0828 
    106 H106       31.1102  -48.2637  -54.3063 H         1 UNK         0.3005 
    107 H107       31.6721  -48.1586  -57.8420 H         1 UNK         0.1257 
    108 H108       32.9596  -46.8099  -55.4170 H         1 UNK         0.0775 
    109 H109       33.9355  -47.6917  -56.5555 H         1 UNK         0.0775 
    110 H110       33.9218  -44.4352  -55.7955 H         1 UNK         0.0840 
    111 H111       33.3000  -43.4318  -57.0808 H         1 UNK         0.0840 
    112 H112       32.7557  -49.5910  -55.5581 H         1 UNK         0.2987 
    113 H113       30.9867  -52.5764  -56.1652 H         1 UNK         0.0785 
    114 H114       33.9032  -52.0215  -56.9418 H         1 UNK         0.0798 
    115 H115       32.6860  -52.7364  -57.9896 H         1 UNK         0.0798 
    116 H116       33.2150  -53.6000  -56.5562 H         1 UNK         0.0798 
    117 H117       33.2622  -51.9883  -54.5327 H         1 UNK         0.3079 
    118 H118       31.4383  -50.6841  -51.7462 H         1 UNK         0.0794 
    119 H119       32.9818  -53.2990  -52.1790 H         1 UNK         0.0786 
    120 H120       31.3198  -53.1831  -51.6172 H         1 UNK         0.0786 
    121 H121       32.6194  -52.5428  -50.6273 H         1 UNK         0.0786 
    122 H122       34.1868  -51.0717  -51.9292 H         1 UNK         0.3032 
    123 H123       35.5290  -49.2598  -51.8759 H         1 UNK         0.1094 
    124 H124       36.8270  -48.5520  -53.8881 H         1 UNK         0.0794 
    125 H125       35.9284  -50.0215  -54.2256 H         1 UNK         0.0794 
    126 H126       35.3503  -48.4815  -54.8449 H         1 UNK         0.0794 
    127 H127       34.8200  -46.7237  -53.2131 H         1 UNK         0.3016 
@<TRIPOS>BOND
     1    1    2 1    
     2    1   67 1    
     3    1   68 1    
     4    1   69 1    
     5    2    3 2    
     6    2    4 am   BACKBONE|DICT|INTERRES
     7    4    5 1    
     8    4   70 1    
     9    5    6 1    
    10    5   65 1    
    11    5   71 1    
    12    6    7 1    
    13    6   72 1    
    14    6   73 1    
    15    7    8 1    
    16    8    9 1    
    17    8   74 1    
    18    8   75 1    
    19    9   10 ar   
    20    9   14 ar   
    21   10   11 ar   
    22   10   76 1    
    23   11   12 ar   
    24   11   48 1    
    25   12   13 ar   
    26   12   77 1    
    27   13   14 ar   
    28   13   15 1    
    29   14   78 1    
    30   15   16 1    
    31   15   79 1    
    32   15   80 1    
    33   16   17 1    
    34   17   18 1    
    35   17   81 1    
    36   17   82 1    
    37   18   19 1    
    38   18   22 1    
    39   18   83 1    
    40   19   20 am   BACKBONE|DICT|INTERRES
    41   19   21 2    
    42   20   84 1    
    43   20   85 1    
    44   22   23 am   BACKBONE|DICT|INTERRES
    45   22   86 1    
    46   23   24 2    
    47   23   25 1    
    48   25   26 1    
    49   25   27 1    
    50   25   87 1    
    51   26   88 1    
    52   26   89 1    
    53   26   90 1    
    54   27   28 am   BACKBONE|DICT|INTERRES
    55   27   91 1    
    56   28   29 2    
    57   28   30 1    
    58   30   31 1    
    59   30   32 1    
    60   30   92 1    
    61   31   93 1    
    62   31   94 1    
    63   31   95 1    
    64   32   33 am   BACKBONE|DICT|INTERRES
    65   32   96 1    
    66   33   34 2    
    67   33   35 1    
    68   35   36 1    
    69   35   37 1    
    70   35   97 1    
    71   36   98 1    
    72   36   99 1    
    73   36  100 1    
    74   37   38 am   BACKBONE|DICT|INTERRES
    75   37  101 1    
    76   38   39 2    
    77   38   40 1    
    78   40   41 1    
    79   40   42 1    
    80   40  102 1    
    81   41  103 1    
    82   41  104 1    
    83   41  105 1    
    84   42   43 am   BACKBONE|DICT|INTERRES
    85   42  106 1    
    86   43   44 2    
    87   43   45 1    
    88   45   46 1    
    89   45   49 1    
    90   45  107 1    
    91   46   47 1    
    92   46  108 1    
    93   46  109 1    
    94   47   48 1    
    95   48  110 1    
    96   48  111 1    
    97   49   50 am   BACKBONE|DICT|INTERRES
    98   49  112 1    
    99   50   51 2    
   100   50   52 1    
   101   52   53 1    
   102   52   54 1    
   103   52  113 1    
   104   53  114 1    
   105   53  115 1    
   106   53  116 1    
   107   54   55 am   BACKBONE|DICT|INTERRES
   108   54  117 1    
   109   55   56 2    
   110   55   57 1    
   111   57   58 1    
   112   57   59 1    
   113   57  118 1    
   114   58  119 1    
   115   58  120 1    
   116   58  121 1    
   117   59   60 am   BACKBONE|DICT|INTERRES
   118   59  122 1    
   119   60   61 2    
   120   60   62 1    
   121   62   63 1    
   122   62   64 1    
   123   62  123 1    
   124   63  124 1    
   125   63  125 1    
   126   63  126 1    
   127   64   65 am   BACKBONE|DICT|INTERRES
   128   64  127 1    
   129   65   66 2    
@<TRIPOS>SUBSTRUCTURE
     1 UNK         1 GROUP             0       ****    0 ROOT    
