@<TRIPOS>MOLECULE
3R134
127   129    1
SMALL
USER_CHARGES


@<TRIPOS>ATOM
      1 CA         35.9399  -45.2366  -48.2938 C.3       0 UNK        -0.1968 
      2 C          35.9738  -45.0713  -49.8060 C.2       0 UNK         0.4852 
      3 O          37.0329  -45.2285  -50.4147 O.2       0 UNK        -0.5359 
      4 N          34.8221  -44.7609  -50.4161 N.am      1 UNK        -0.4300 
      5 CA         34.6545  -44.5521  -51.8610 C.3       1 UNK         0.0863 
      6 C6         33.4986  -43.5637  -52.1746 C.3       11 UNK        -0.0953 
      7 S7         31.9187  -43.8769  -51.3030 S.3       11 UNK        -0.2369 
      8 C8         30.9641  -44.8994  -52.4697 C.3       11 UNK         0.0226 
      9 C9         30.7106  -44.2133  -53.8037 C.ar      11 UNK        -0.0699 
     10 C10        31.5415  -44.5011  -54.8856 C.ar      11 UNK        -0.0804 
     11 C11        31.3645  -43.8723  -56.1172 C.ar      11 UNK        -0.0871 
     12 C12        30.3242  -42.9527  -56.2666 C.ar      11 UNK        -0.1008 
     13 C13        29.4690  -42.6617  -55.1962 C.ar      11 UNK        -0.0735 
     14 C14        29.6641  -43.2999  -53.9652 C.ar      11 UNK        -0.0945 
     15 C15        28.3841  -41.6049  -55.3564 C.3       11 UNK         0.0169 
     16 S16        27.2829  -41.9497  -56.7651 S.3       11 UNK        -0.2669 
     17 C17        25.9027  -42.8539  -55.9828 C.3       11 UNK        -0.0850 
     18 CA         26.0854  -44.3987  -55.8609 C.3       10 UNK         0.0855 
     19 C          24.7873  -45.0500  -55.2991 C.2       10 UNK         0.5543 
     20 N          24.4617  -44.7749  -54.0421 N.am      10 UNK        -0.7343 
     21 O          24.0547  -45.7673  -55.9775 O.2       10 UNK        -0.5027 
     22 N          26.6060  -45.0438  -57.0800 N.am      10 UNK        -0.4495 
     23 C          26.0821  -44.9738  -58.3110 C.2       10 UNK         0.4903 
     24 O          25.0422  -44.3802  -58.5998 O.2       10 UNK        -0.4860 
     25 CA         26.8785  -45.6576  -59.4266 C.3       9 UNK         0.0227 
     26 CB         28.2080  -44.9217  -59.6749 C.3       9 UNK        -0.1964 
     27 N          27.1457  -47.0613  -59.1073 N.am      9 UNK        -0.4231 
     28 C          26.6083  -48.0983  -59.7627 C.2       9 UNK         0.5014 
     29 O          25.7735  -47.9863  -60.6624 O.2       9 UNK        -0.5270 
     30 CA         27.1110  -49.5040  -59.3978 C.3       8 UNK         0.0284 
     31 CB         28.4433  -49.7945  -60.1081 C.3       8 UNK        -0.1977 
     32 N          27.2527  -49.7438  -57.9598 N.am      8 UNK        -0.4342 
     33 C          26.2192  -49.9145  -57.1228 C.2       8 UNK         0.5039 
     34 O          25.0397  -49.7951  -57.4566 O.2       8 UNK        -0.5547 
     35 CA         26.5503  -50.3317  -55.6806 C.3       7 UNK         0.0281 
     36 CB         26.9588  -51.8130  -55.6189 C.3       7 UNK        -0.1963 
     37 N          27.6049  -49.5079  -55.0947 N.am      7 UNK        -0.4444 
     38 C          27.4183  -48.2672  -54.6263 C.2       7 UNK         0.5104 
     39 O          26.3205  -47.7218  -54.5557 O.2       7 UNK        -0.5100 
     40 CA         28.6689  -47.5003  -54.1582 C.3       6 UNK         0.0396 
     41 CB         28.9746  -47.8626  -52.6952 C.3       6 UNK        -0.1801 
     42 N          29.8417  -47.7495  -55.0063 N.am      6 UNK        -0.4747 
     43 C          29.8887  -47.4847  -56.3236 C.2       6 UNK         0.5012 
     44 O          28.9691  -46.9385  -56.9372 O.2       6 UNK        -0.5003 
     45 CA         31.1108  -48.0040  -57.1130 C.3       5 UNK         0.0782 
     46 C46        32.2589  -46.9794  -57.2484 C.3       11 UNK        -0.0868 
     47 S47        31.8221  -45.5488  -58.2959 S.3       11 UNK        -0.2515 
     48 C48        32.3331  -44.1425  -57.2601 C.3       11 UNK         0.0199 
     49 N          31.5981  -49.2723  -56.5679 N.am      5 UNK        -0.4607 
     50 C          30.9715  -50.4442  -56.7280 C.2       4 UNK         0.5031 
     51 O          29.9252  -50.5782  -57.3605 O.2       4 UNK        -0.5119 
     52 CA         31.5906  -51.6566  -56.0163 C.3       4 UNK         0.0263 
     53 CB         32.8470  -52.1455  -56.7548 C.3       4 UNK        -0.1967 
     54 N          31.9143  -51.3706  -54.6165 N.am      4 UNK        -0.4237 
     55 C          31.0014  -51.0695  -53.6821 C.2       3 UNK         0.4908 
     56 O          29.7904  -51.0418  -53.8970 O.2       3 UNK        -0.5102 
     57 CA         31.5149  -50.7254  -52.2750 C.3       3 UNK         0.0241 
     58 CB         31.5393  -51.9857  -51.3954 C.3       3 UNK        -0.1971 
     59 N          32.8323  -50.0833  -52.2411 N.am      3 UNK        -0.4139 
     60 C          33.1464  -48.9027  -52.7942 C.2       2 UNK         0.5016 
     61 O          32.3829  -48.2478  -53.5082 O.2       2 UNK        -0.5319 
     62 CA         34.5705  -48.4040  -52.5084 C.3       2 UNK         0.0286 
     63 CB         35.5057  -48.6416  -53.7122 C.3       2 UNK        -0.1963 
     64 N          34.5947  -47.0202  -52.0106 N.am      2 UNK        -0.4790 
     65 C          34.5847  -45.8608  -52.6883 C.2       1 UNK         0.5024 
     66 O          34.5735  -45.7804  -53.9164 O.2       1 UNK        -0.4888 
     67 H67        34.9415  -45.0751  -47.8875 H         1 UNK         0.0892 
     68 H68        36.6159  -44.5228  -47.8238 H         1 UNK         0.0892 
     69 H69        36.2598  -46.2411  -48.0182 H         1 UNK         0.0892 
     70 H70        33.9805  -44.6383  -49.8691 H         1 UNK         0.3107 
     71 H71        35.5643  -44.0628  -52.2164 H         1 UNK         0.0773 
     72 H72        33.3400  -43.4656  -53.2472 H         1 UNK         0.0680 
     73 H73        33.8148  -42.5678  -51.8610 H         1 UNK         0.0680 
     74 H74        31.4950  -45.8393  -52.6226 H         1 UNK         0.0650 
     75 H75        30.0100  -45.1536  -52.0070 H         1 UNK         0.0650 
     76 H76        32.3494  -45.2003  -54.7491 H         1 UNK         0.1397 
     77 H77        30.1874  -42.4485  -57.2136 H         1 UNK         0.1363 
     78 H78        29.0224  -43.0694  -53.1261 H         1 UNK         0.1355 
     79 H79        28.8688  -40.6428  -55.5273 H         1 UNK         0.0707 
     80 H80        27.8011  -41.4919  -54.4414 H         1 UNK         0.0707 
     81 H81        25.0109  -42.6334  -56.5724 H         1 UNK         0.1034 
     82 H82        25.7101  -42.4152  -55.0026 H         1 UNK         0.1034 
     83 H83        26.8613  -44.5788  -55.1155 H         1 UNK         0.0482 
     84 H84        25.0476  -44.1969  -53.4610 H         1 UNK         0.3460 
     85 H85        23.6233  -45.1816  -53.6582 H         1 UNK         0.3460 
     86 H86        27.4565  -45.5816  -56.9535 H         1 UNK         0.2989 
     87 H87        26.2903  -45.5784  -60.3432 H         1 UNK         0.0559 
     88 H88        28.7594  -45.3670  -60.5029 H         1 UNK         0.0848 
     89 H89        28.8558  -44.9370  -58.7978 H         1 UNK         0.0848 
     90 H90        28.0319  -43.8750  -59.9263 H         1 UNK         0.0848 
     91 H91        27.7983  -47.2328  -58.3453 H         1 UNK         0.3144 
     92 H92        26.3770  -50.2184  -59.7777 H         1 UNK         0.0727 
     93 H93        28.7693  -50.8205  -59.9361 H         1 UNK         0.0790 
     94 H94        29.2369  -49.1293  -59.7678 H         1 UNK         0.0790 
     95 H95        28.3479  -49.6623  -61.1868 H         1 UNK         0.0790 
     96 H96        28.1953  -49.9242  -57.6193 H         1 UNK         0.3215 
     97 H97        25.6439  -50.2109  -55.0829 H         1 UNK         0.0863 
     98 H98        27.1174  -52.1355  -54.5897 H         1 UNK         0.0808 
     99 H99        27.8791  -52.0055  -56.1715 H         1 UNK         0.0808 
    100 H100       26.1822  -52.4505  -56.0435 H         1 UNK         0.0808 
    101 H101       28.5293  -49.9212  -55.0212 H         1 UNK         0.3118 
    102 H102       28.4591  -46.4301  -54.2119 H         1 UNK         0.0546 
    103 H103       28.2646  -47.3758  -52.0259 H         1 UNK         0.0828 
    104 H104       29.9735  -47.5591  -52.3907 H         1 UNK         0.0828 
    105 H105       28.8897  -48.9342  -52.5178 H         1 UNK         0.0828 
    106 H106       30.6599  -48.1516  -54.5581 H         1 UNK         0.3005 
    107 H107       30.7521  -48.2097  -58.1239 H         1 UNK         0.1257 
    108 H108       33.1146  -47.4579  -57.7274 H         1 UNK         0.0775 
    109 H109       32.6199  -46.6697  -56.2700 H         1 UNK         0.0775 
    110 H110       33.3376  -44.3197  -56.8719 H         1 UNK         0.0840 
    111 H111       32.4094  -43.2567  -57.8924 H         1 UNK         0.0840 
    112 H112       32.4174  -49.2292  -55.9792 H         1 UNK         0.2987 
    113 H113       30.8514  -52.4607  -56.0320 H         1 UNK         0.0785 
    114 H114       33.6431  -51.4001  -56.7450 H         1 UNK         0.0798 
    115 H115       32.6221  -52.3685  -57.7989 H         1 UNK         0.0798 
    116 H116       33.2380  -53.0598  -56.3080 H         1 UNK         0.0798 
    117 H117       32.8886  -51.3809  -54.3535 H         1 UNK         0.3079 
    118 H118       30.8073  -50.0238  -51.8320 H         1 UNK         0.0794 
    119 H119       32.2602  -52.7194  -51.7586 H         1 UNK         0.0786 
    120 H120       30.5615  -52.4699  -51.3802 H         1 UNK         0.0786 
    121 H121       31.7937  -51.7458  -50.3628 H         1 UNK         0.0786 
    122 H122       33.5357  -50.5570  -51.6924 H         1 UNK         0.3032 
    123 H123       34.9709  -48.9951  -51.6827 H         1 UNK         0.1094 
    124 H124       35.1223  -48.1860  -54.6257 H         1 UNK         0.0794 
    125 H125       36.5030  -48.2421  -53.5281 H         1 UNK         0.0794 
    126 H126       35.6156  -49.7081  -53.9121 H         1 UNK         0.0794 
    127 H127       34.5974  -46.9372  -51.0038 H         1 UNK         0.3016 
@<TRIPOS>BOND
     1    1    2 1    
     2    1   67 1    
     3    1   68 1    
     4    1   69 1    
     5    2    3 2    
     6    2    4 am   BACKBONE|DICT|INTERRES
     7    4    5 1    
     8    4   70 1    
     9    5    6 1    
    10    5   65 1    
    11    5   71 1    
    12    6    7 1    
    13    6   72 1    
    14    6   73 1    
    15    7    8 1    
    16    8    9 1    
    17    8   74 1    
    18    8   75 1    
    19    9   10 ar   
    20    9   14 ar   
    21   10   11 ar   
    22   10   76 1    
    23   11   12 ar   
    24   11   48 1    
    25   12   13 ar   
    26   12   77 1    
    27   13   14 ar   
    28   13   15 1    
    29   14   78 1    
    30   15   16 1    
    31   15   79 1    
    32   15   80 1    
    33   16   17 1    
    34   17   18 1    
    35   17   81 1    
    36   17   82 1    
    37   18   19 1    
    38   18   22 1    
    39   18   83 1    
    40   19   20 am   BACKBONE|DICT|INTERRES
    41   19   21 2    
    42   20   84 1    
    43   20   85 1    
    44   22   23 am   BACKBONE|DICT|INTERRES
    45   22   86 1    
    46   23   24 2    
    47   23   25 1    
    48   25   26 1    
    49   25   27 1    
    50   25   87 1    
    51   26   88 1    
    52   26   89 1    
    53   26   90 1    
    54   27   28 am   BACKBONE|DICT|INTERRES
    55   27   91 1    
    56   28   29 2    
    57   28   30 1    
    58   30   31 1    
    59   30   32 1    
    60   30   92 1    
    61   31   93 1    
    62   31   94 1    
    63   31   95 1    
    64   32   33 am   BACKBONE|DICT|INTERRES
    65   32   96 1    
    66   33   34 2    
    67   33   35 1    
    68   35   36 1    
    69   35   37 1    
    70   35   97 1    
    71   36   98 1    
    72   36   99 1    
    73   36  100 1    
    74   37   38 am   BACKBONE|DICT|INTERRES
    75   37  101 1    
    76   38   39 2    
    77   38   40 1    
    78   40   41 1    
    79   40   42 1    
    80   40  102 1    
    81   41  103 1    
    82   41  104 1    
    83   41  105 1    
    84   42   43 am   BACKBONE|DICT|INTERRES
    85   42  106 1    
    86   43   44 2    
    87   43   45 1    
    88   45   46 1    
    89   45   49 1    
    90   45  107 1    
    91   46   47 1    
    92   46  108 1    
    93   46  109 1    
    94   47   48 1    
    95   48  110 1    
    96   48  111 1    
    97   49   50 am   BACKBONE|DICT|INTERRES
    98   49  112 1    
    99   50   51 2    
   100   50   52 1    
   101   52   53 1    
   102   52   54 1    
   103   52  113 1    
   104   53  114 1    
   105   53  115 1    
   106   53  116 1    
   107   54   55 am   BACKBONE|DICT|INTERRES
   108   54  117 1    
   109   55   56 2    
   110   55   57 1    
   111   57   58 1    
   112   57   59 1    
   113   57  118 1    
   114   58  119 1    
   115   58  120 1    
   116   58  121 1    
   117   59   60 am   BACKBONE|DICT|INTERRES
   118   59  122 1    
   119   60   61 2    
   120   60   62 1    
   121   62   63 1    
   122   62   64 1    
   123   62  123 1    
   124   63  124 1    
   125   63  125 1    
   126   63  126 1    
   127   64   65 am   BACKBONE|DICT|INTERRES
   128   64  127 1    
   129   65   66 2    
@<TRIPOS>SUBSTRUCTURE
     1 UNK         1 GROUP             0       ****    0 ROOT    
