@<TRIPOS>MOLECULE
3R134
127   129    1
SMALL
USER_CHARGES


@<TRIPOS>ATOM
      1 CA         38.3981  -47.7136  -56.2503 C.3       0 UNK        -0.1968 
      2 C          37.0733  -47.5487  -55.5192 C.2       0 UNK         0.4852 
      3 O          36.4533  -48.5476  -55.1515 O.2       0 UNK        -0.5359 
      4 N          36.6384  -46.2981  -55.3165 N.am      1 UNK        -0.4300 
      5 CA         35.4133  -45.9353  -54.5949 C.3       1 UNK         0.0863 
      6 C6         34.8321  -44.5874  -55.0948 C.3       11 UNK        -0.0953 
      7 S7         34.2464  -44.6954  -56.8201 S.3       11 UNK        -0.2369 
      8 C8         32.6769  -45.6160  -56.6535 C.3       11 UNK         0.0226 
      9 C9         31.6600  -44.8802  -55.7919 C.ar      11 UNK        -0.0699 
     10 C10        31.4115  -45.2945  -54.4795 C.ar      11 UNK        -0.0804 
     11 C11        30.5256  -44.5803  -53.6640 C.ar      11 UNK        -0.0871 
     12 C12        29.8802  -43.4532  -54.1825 C.ar      11 UNK        -0.1008 
     13 C13        30.1015  -43.0391  -55.5018 C.ar      11 UNK        -0.0735 
     14 C14        30.9904  -43.7642  -56.3005 C.ar      11 UNK        -0.0945 
     15 C15        29.4744  -41.7611  -56.0564 C.3       11 UNK         0.0169 
     16 S16        27.7806  -41.4234  -55.4672 S.3       11 UNK        -0.2669 
     17 C17        26.7743  -42.5617  -56.4800 C.3       11 UNK        -0.0850 
     18 CA         26.2288  -43.7893  -55.6920 C.3       10 UNK         0.0855 
     19 C          25.0321  -43.4713  -54.7395 C.2       10 UNK         0.5543 
     20 N          24.1832  -44.4420  -54.4206 N.am      10 UNK        -0.7343 
     21 O          24.8674  -42.3492  -54.2680 O.2       10 UNK        -0.5027 
     22 N          25.9817  -44.9440  -56.5713 N.am      10 UNK        -0.4495 
     23 C          25.1269  -44.9801  -57.6041 C.2       10 UNK         0.4903 
     24 O          24.4704  -44.0104  -57.9875 O.2       10 UNK        -0.4860 
     25 CA         24.9717  -46.3393  -58.3140 C.3       9 UNK         0.0227 
     26 CB         24.2830  -46.2339  -59.6914 C.3       9 UNK        -0.1964 
     27 N          26.2346  -47.0780  -58.4070 N.am      9 UNK        -0.4231 
     28 C          27.3484  -46.7331  -59.0716 C.2       9 UNK         0.5014 
     29 O          27.4514  -45.7242  -59.7705 O.2       9 UNK        -0.5270 
     30 CA         28.5715  -47.6606  -58.9195 C.3       8 UNK         0.0284 
     31 CB         29.6300  -46.9933  -58.0277 C.3       8 UNK        -0.1977 
     32 N          28.2493  -48.9795  -58.3658 N.am      8 UNK        -0.4342 
     33 C          27.5629  -49.9373  -59.0050 C.2       8 UNK         0.5039 
     34 O          27.1987  -49.8558  -60.1784 O.2       8 UNK        -0.5547 
     35 CA         27.1759  -51.1722  -58.1763 C.3       7 UNK         0.0281 
     36 CB         28.3126  -52.2070  -58.1680 C.3       7 UNK        -0.1963 
     37 N          26.8162  -50.8133  -56.8006 N.am      7 UNK        -0.4444 
     38 C          25.6664  -50.2183  -56.4500 C.2       7 UNK         0.5104 
     39 O          24.7678  -49.9439  -57.2445 O.2       7 UNK        -0.5100 
     40 CA         25.5024  -49.8324  -54.9695 C.3       6 UNK         0.0396 
     41 CB         24.9603  -51.0197  -54.1586 C.3       6 UNK        -0.1801 
     42 N          26.7481  -49.3534  -54.3660 N.am      6 UNK        -0.4747 
     43 C          27.3432  -48.1910  -54.6725 C.2       6 UNK         0.5012 
     44 O          26.8762  -47.3735  -55.4645 O.2       6 UNK        -0.5003 
     45 CA         28.7094  -47.9118  -54.0190 C.3       5 UNK         0.0782 
     46 C46        28.5372  -47.1058  -52.7096 C.3       11 UNK        -0.0868 
     47 S47        30.1354  -46.7446  -51.9026 S.3       11 UNK        -0.2515 
     48 C48        30.3110  -44.9555  -52.1995 C.3       11 UNK         0.0199 
     49 N          29.5054  -49.1278  -53.8177 N.am      5 UNK        -0.4607 
     50 C          29.9572  -49.9325  -54.7884 C.2       4 UNK         0.5031 
     51 O          29.6235  -49.8183  -55.9690 O.2       4 UNK        -0.5119 
     52 CA         30.9322  -51.0514  -54.3608 C.3       4 UNK         0.0263 
     53 CB         31.8311  -51.5201  -55.5248 C.3       4 UNK        -0.1967 
     54 N          31.7461  -50.7079  -53.1814 N.am      4 UNK        -0.4237 
     55 C          32.5901  -49.6711  -53.0694 C.2       3 UNK         0.4908 
     56 O          32.8123  -48.8549  -53.9707 O.2       3 UNK        -0.5102 
     57 CA         33.2905  -49.4989  -51.7145 C.3       3 UNK         0.0241 
     58 CB         34.5234  -50.4136  -51.6003 C.3       3 UNK        -0.1971 
     59 N          33.6877  -48.1027  -51.6526 N.am      3 UNK        -0.4139 
     60 C          34.0474  -47.3652  -50.5990 C.2       2 UNK         0.5016 
     61 O          34.1401  -47.8024  -49.4511 O.2       2 UNK        -0.5319 
     62 CA         34.3187  -45.8721  -50.8909 C.3       2 UNK         0.0286 
     63 CB         35.4248  -45.2721  -49.9963 C.3       2 UNK        -0.1963 
     64 N          34.5502  -45.6117  -52.3246 N.am      2 UNK        -0.4790 
     65 C          35.6130  -45.9774  -53.0619 C.2       1 UNK         0.5024 
     66 O          36.6731  -46.3831  -52.5803 O.2       1 UNK        -0.4888 
     67 H67        39.1141  -48.2342  -55.6150 H         1 UNK         0.0892 
     68 H68        38.2557  -48.3012  -57.1569 H         1 UNK         0.0892 
     69 H69        38.8309  -46.7541  -56.5332 H         1 UNK         0.0892 
     70 H70        37.2047  -45.5221  -55.6271 H         1 UNK         0.3107 
     71 H71        34.6709  -46.7099  -54.7971 H         1 UNK         0.0773 
     72 H72        35.5904  -43.8046  -55.0381 H         1 UNK         0.0680 
     73 H73        34.0036  -44.2336  -54.4820 H         1 UNK         0.0680 
     74 H74        32.8704  -46.6143  -56.2584 H         1 UNK         0.0650 
     75 H75        32.2645  -45.7639  -57.6516 H         1 UNK         0.0650 
     76 H76        31.9259  -46.1612  -54.0879 H         1 UNK         0.1397 
     77 H77        29.2228  -42.8779  -53.5455 H         1 UNK         0.1363 
     78 H78        31.1951  -43.4387  -57.3114 H         1 UNK         0.1355 
     79 H79        30.1080  -40.9241  -55.7602 H         1 UNK         0.0707 
     80 H80        29.4759  -41.7706  -57.1475 H         1 UNK         0.0707 
     81 H81        25.9534  -41.9979  -56.9265 H         1 UNK         0.1034 
     82 H82        27.3831  -42.9023  -57.3191 H         1 UNK         0.1034 
     83 H83        27.0272  -44.1269  -55.0302 H         1 UNK         0.0482 
     84 H84        24.3096  -45.3708  -54.7892 H         1 UNK         0.3460 
     85 H85        23.4121  -44.2414  -53.8035 H         1 UNK         0.3460 
     86 H86        26.4265  -45.8145  -56.2858 H         1 UNK         0.2989 
     87 H87        24.3253  -46.9396  -57.6721 H         1 UNK         0.0559 
     88 H88        24.8373  -45.5899  -60.3747 H         1 UNK         0.0848 
     89 H89        23.2799  -45.8166  -59.5957 H         1 UNK         0.0848 
     90 H90        24.1820  -47.2130  -60.1597 H         1 UNK         0.0848 
     91 H91        26.2862  -47.9096  -57.8348 H         1 UNK         0.3144 
     92 H92        28.9997  -47.8064  -59.9133 H         1 UNK         0.0727 
     93 H93        29.2395  -46.7740  -57.0341 H         1 UNK         0.0790 
     94 H94        29.9590  -46.0474  -58.4596 H         1 UNK         0.0790 
     95 H95        30.5109  -47.6250  -57.9114 H         1 UNK         0.0790 
     96 H96        28.5921  -49.1801  -57.4282 H         1 UNK         0.3215 
     97 H97        26.3049  -51.6313  -58.6497 H         1 UNK         0.0863 
     98 H98        28.0337  -53.1001  -57.6087 H         1 UNK         0.0808 
     99 H99        29.2254  -51.8055  -57.7284 H         1 UNK         0.0808 
    100 H100       28.5549  -52.5236  -59.1833 H         1 UNK         0.0808 
    101 H101       27.5269  -50.9458  -56.0950 H         1 UNK         0.3118 
    102 H102       24.7693  -49.0243  -54.9168 H         1 UNK         0.0546 
    103 H103       25.6559  -51.8597  -54.1518 H         1 UNK         0.0828 
    104 H104       24.0195  -51.3799  -54.5775 H         1 UNK         0.0828 
    105 H105       24.7640  -50.7371  -53.1242 H         1 UNK         0.0828 
    106 H106       27.2037  -49.9626  -53.7015 H         1 UNK         0.3005 
    107 H107       29.2654  -47.2872  -54.7206 H         1 UNK         0.1257 
    108 H108       27.9217  -47.6581  -51.9969 H         1 UNK         0.0775 
    109 H109       28.0097  -46.1694  -52.9039 H         1 UNK         0.0775 
    110 H110       29.4329  -44.4499  -51.7944 H         1 UNK         0.0840 
    111 H111       31.1619  -44.5903  -51.6240 H         1 UNK         0.0840 
    112 H112       29.8354  -49.2815  -52.8765 H         1 UNK         0.2987 
    113 H113       30.3074  -51.8961  -54.0673 H         1 UNK         0.0785 
    114 H114       31.2357  -51.9205  -56.3455 H         1 UNK         0.0798 
    115 H115       32.5128  -52.3090  -55.2076 H         1 UNK         0.0798 
    116 H116       32.4292  -50.7020  -55.9280 H         1 UNK         0.0798 
    117 H117       31.6309  -51.3169  -52.3821 H         1 UNK         0.3079 
    118 H118       32.5838  -49.7065  -50.9086 H         1 UNK         0.0794 
    119 H119       34.2409  -51.4648  -51.6666 H         1 UNK         0.0786 
    120 H120       35.0346  -50.2757  -50.6474 H         1 UNK         0.0786 
    121 H121       35.2429  -50.2161  -52.3967 H         1 UNK         0.0786 
    122 H122       33.6140  -47.6534  -52.5571 H         1 UNK         0.3032 
    123 H123       33.3908  -45.3560  -50.6394 H         1 UNK         0.1094 
    124 H124       35.6232  -44.2314  -50.2518 H         1 UNK         0.0794 
    125 H125       35.1288  -45.2967  -48.9468 H         1 UNK         0.0794 
    126 H126       36.3611  -45.8245  -50.0753 H         1 UNK         0.0794 
    127 H127       33.7529  -45.2311  -52.8152 H         1 UNK         0.3016 
@<TRIPOS>BOND
     1    1    2 1    
     2    1   67 1    
     3    1   68 1    
     4    1   69 1    
     5    2    3 2    
     6    2    4 am   BACKBONE|DICT|INTERRES
     7    4    5 1    
     8    4   70 1    
     9    5    6 1    
    10    5   65 1    
    11    5   71 1    
    12    6    7 1    
    13    6   72 1    
    14    6   73 1    
    15    7    8 1    
    16    8    9 1    
    17    8   74 1    
    18    8   75 1    
    19    9   10 ar   
    20    9   14 ar   
    21   10   11 ar   
    22   10   76 1    
    23   11   12 ar   
    24   11   48 1    
    25   12   13 ar   
    26   12   77 1    
    27   13   14 ar   
    28   13   15 1    
    29   14   78 1    
    30   15   16 1    
    31   15   79 1    
    32   15   80 1    
    33   16   17 1    
    34   17   18 1    
    35   17   81 1    
    36   17   82 1    
    37   18   19 1    
    38   18   22 1    
    39   18   83 1    
    40   19   20 am   BACKBONE|DICT|INTERRES
    41   19   21 2    
    42   20   84 1    
    43   20   85 1    
    44   22   23 am   BACKBONE|DICT|INTERRES
    45   22   86 1    
    46   23   24 2    
    47   23   25 1    
    48   25   26 1    
    49   25   27 1    
    50   25   87 1    
    51   26   88 1    
    52   26   89 1    
    53   26   90 1    
    54   27   28 am   BACKBONE|DICT|INTERRES
    55   27   91 1    
    56   28   29 2    
    57   28   30 1    
    58   30   31 1    
    59   30   32 1    
    60   30   92 1    
    61   31   93 1    
    62   31   94 1    
    63   31   95 1    
    64   32   33 am   BACKBONE|DICT|INTERRES
    65   32   96 1    
    66   33   34 2    
    67   33   35 1    
    68   35   36 1    
    69   35   37 1    
    70   35   97 1    
    71   36   98 1    
    72   36   99 1    
    73   36  100 1    
    74   37   38 am   BACKBONE|DICT|INTERRES
    75   37  101 1    
    76   38   39 2    
    77   38   40 1    
    78   40   41 1    
    79   40   42 1    
    80   40  102 1    
    81   41  103 1    
    82   41  104 1    
    83   41  105 1    
    84   42   43 am   BACKBONE|DICT|INTERRES
    85   42  106 1    
    86   43   44 2    
    87   43   45 1    
    88   45   46 1    
    89   45   49 1    
    90   45  107 1    
    91   46   47 1    
    92   46  108 1    
    93   46  109 1    
    94   47   48 1    
    95   48  110 1    
    96   48  111 1    
    97   49   50 am   BACKBONE|DICT|INTERRES
    98   49  112 1    
    99   50   51 2    
   100   50   52 1    
   101   52   53 1    
   102   52   54 1    
   103   52  113 1    
   104   53  114 1    
   105   53  115 1    
   106   53  116 1    
   107   54   55 am   BACKBONE|DICT|INTERRES
   108   54  117 1    
   109   55   56 2    
   110   55   57 1    
   111   57   58 1    
   112   57   59 1    
   113   57  118 1    
   114   58  119 1    
   115   58  120 1    
   116   58  121 1    
   117   59   60 am   BACKBONE|DICT|INTERRES
   118   59  122 1    
   119   60   61 2    
   120   60   62 1    
   121   62   63 1    
   122   62   64 1    
   123   62  123 1    
   124   63  124 1    
   125   63  125 1    
   126   63  126 1    
   127   64   65 am   BACKBONE|DICT|INTERRES
   128   64  127 1    
   129   65   66 2    
@<TRIPOS>SUBSTRUCTURE
     1 UNK         1 GROUP             0       ****    0 ROOT    
