@<TRIPOS>MOLECULE
3R134
127   129    1
SMALL
USER_CHARGES


@<TRIPOS>ATOM
      1 CA         30.8307  -48.6226  -49.1449 C.3       0 UNK        -0.1968 
      2 C          32.0305  -47.9124  -49.7534 C.2       0 UNK         0.4852 
      3 O          33.0898  -48.5257  -49.8982 O.2       0 UNK        -0.5359 
      4 N          31.8666  -46.6305  -50.1139 N.am      1 UNK        -0.4300 
      5 CA         32.8581  -45.7794  -50.7823 C.3       1 UNK         0.0863 
      6 C6         32.3097  -44.3432  -50.9722 C.3       11 UNK        -0.0953 
      7 S7         33.5927  -43.1582  -51.5028 S.3       11 UNK        -0.2369 
      8 C8         32.6332  -41.9989  -52.5320 C.3       11 UNK         0.0226 
      9 C9         32.0587  -42.6513  -53.7837 C.ar      11 UNK        -0.0699 
     10 C10        32.9096  -43.1201  -54.7898 C.ar      11 UNK        -0.0804 
     11 C11        32.3915  -43.7128  -55.9458 C.ar      11 UNK        -0.0871 
     12 C12        31.0037  -43.8205  -56.0890 C.ar      11 UNK        -0.1008 
     13 C13        30.1399  -43.3539  -55.0961 C.ar      11 UNK        -0.0735 
     14 C14        30.6741  -42.7691  -53.9445 C.ar      11 UNK        -0.0945 
     15 C15        28.6331  -43.5009  -55.2563 C.3       11 UNK         0.0169 
     16 S16        27.9096  -42.1462  -56.2331 S.3       11 UNK        -0.2669 
     17 C17        28.0515  -42.7820  -57.9427 C.3       11 UNK        -0.0850 
     18 CA         26.7070  -43.3355  -58.4851 C.3       10 UNK         0.0855 
     19 C          26.7755  -43.6406  -60.0117 C.2       10 UNK         0.5543 
     20 N          26.3471  -44.8038  -60.4895 N.am      10 UNK        -0.7343 
     21 O          27.2167  -42.7952  -60.7862 O.2       10 UNK        -0.5027 
     22 N          26.2269  -44.4689  -57.6785 N.am      10 UNK        -0.4495 
     23 C          24.9411  -44.7321  -57.4216 C.2       10 UNK         0.4903 
     24 O          24.0071  -44.0152  -57.7856 O.2       10 UNK        -0.4860 
     25 CA         24.6611  -46.0238  -56.6292 C.3       9 UNK         0.0227 
     26 CB         23.1751  -46.4392  -56.6663 C.3       9 UNK        -0.1964 
     27 N          25.5167  -47.1525  -57.0208 N.am      9 UNK        -0.4231 
     28 C          25.6308  -47.7030  -58.2417 C.2       9 UNK         0.5014 
     29 O          25.0706  -47.2518  -59.2420 O.2       9 UNK        -0.5270 
     30 CA         26.5234  -48.9520  -58.4036 C.3       8 UNK         0.0284 
     31 CB         27.7001  -48.6587  -59.3504 C.3       8 UNK        -0.1977 
     32 N          27.0460  -49.4882  -57.1441 N.am      8 UNK        -0.4342 
     33 C          26.3263  -50.1313  -56.2136 C.2       8 UNK         0.5039 
     34 O          25.1411  -50.4339  -56.3535 O.2       8 UNK        -0.5547 
     35 CA         27.0327  -50.4437  -54.8800 C.3       7 UNK         0.0281 
     36 CB         27.6599  -51.8449  -54.9195 C.3       7 UNK        -0.1963 
     37 N          28.0473  -49.4469  -54.5086 N.am      7 UNK        -0.4444 
     38 C          27.7833  -48.1507  -54.2804 C.2       7 UNK         0.5104 
     39 O          26.6557  -47.6614  -54.3438 O.2       7 UNK        -0.5100 
     40 CA         28.9751  -47.2330  -53.9793 C.3       6 UNK         0.0396 
     41 CB         29.3489  -47.2923  -52.4923 C.3       6 UNK        -0.1801 
     42 N          30.1385  -47.5415  -54.8116 N.am      6 UNK        -0.4747 
     43 C          30.2107  -47.3040  -56.1305 C.2       6 UNK         0.5012 
     44 O          29.3208  -46.7419  -56.7712 O.2       6 UNK        -0.5003 
     45 CA         31.4540  -47.8506  -56.8669 C.3       5 UNK         0.0782 
     46 C46        32.6861  -46.9264  -56.7172 C.3       11 UNK        -0.0868 
     47 S47        32.7536  -45.6334  -57.9974 S.3       11 UNK        -0.2515 
     48 C48        33.3504  -44.2011  -57.0316 C.3       11 UNK         0.0199 
     49 N          31.7687  -49.2210  -56.4556 N.am      5 UNK        -0.4607 
     50 C          30.9711  -50.2769  -56.6666 C.2       4 UNK         0.5031 
     51 O          29.8996  -50.2123  -57.2671 O.2       4 UNK        -0.5119 
     52 CA         31.4223  -51.6283  -56.0866 C.3       4 UNK         0.0263 
     53 CB         32.1968  -52.4304  -57.1437 C.3       4 UNK        -0.1967 
     54 N          32.2357  -51.5119  -54.8756 N.am      4 UNK        -0.4237 
     55 C          31.8689  -50.9116  -53.7343 C.2       3 UNK         0.4908 
     56 O          30.7650  -50.3941  -53.5527 O.2       3 UNK        -0.5102 
     57 CA         32.9241  -50.8660  -52.6149 C.3       3 UNK         0.0241 
     58 CB         33.8994  -52.0636  -52.6441 C.3       3 UNK        -0.1971 
     59 N          33.6784  -49.6077  -52.5778 N.am      3 UNK        -0.4139 
     60 C          34.3373  -48.9938  -53.5768 C.2       2 UNK         0.5016 
     61 O          34.3275  -49.3748  -54.7496 O.2       2 UNK        -0.5319 
     62 CA         35.1632  -47.7482  -53.1799 C.3       2 UNK         0.0286 
     63 CB         35.5575  -46.8456  -54.3682 C.3       2 UNK        -0.1963 
     64 N          34.5508  -46.9548  -52.1072 N.am      2 UNK        -0.4790 
     65 C          33.3218  -46.4166  -52.1107 C.2       1 UNK         0.5024 
     66 O          32.5502  -46.4650  -53.0683 O.2       1 UNK        -0.4888 
     67 H67        30.5527  -49.4782  -49.7600 H         1 UNK         0.0892 
     68 H68        29.9638  -47.9670  -49.0650 H         1 UNK         0.0892 
     69 H69        31.0759  -48.9849  -48.1470 H         1 UNK         0.0892 
     70 H70        30.9679  -46.1974  -49.9605 H         1 UNK         0.3107 
     71 H71        33.7167  -45.7190  -50.1102 H         1 UNK         0.0773 
     72 H72        31.9017  -43.9721  -50.0308 H         1 UNK         0.0680 
     73 H73        31.4793  -44.3440  -51.6797 H         1 UNK         0.0680 
     74 H74        31.8418  -41.5590  -51.9232 H         1 UNK         0.0650 
     75 H75        33.2834  -41.1752  -52.8294 H         1 UNK         0.0650 
     76 H76        33.9798  -43.0247  -54.6655 H         1 UNK         0.1397 
     77 H77        30.5919  -44.2812  -56.9733 H         1 UNK         0.1363 
     78 H78        30.0098  -42.4063  -53.1722 H         1 UNK         0.1355 
     79 H79        28.1556  -43.5160  -54.2754 H         1 UNK         0.0707 
     80 H80        28.3932  -44.4569  -55.7208 H         1 UNK         0.0707 
     81 H81        28.8244  -43.5458  -58.0096 H         1 UNK         0.1034 
     82 H82        28.4002  -41.9526  -58.5609 H         1 UNK         0.1034 
     83 H83        25.9811  -42.5249  -58.3975 H         1 UNK         0.0482 
     84 H84        26.3976  -44.9713  -61.4815 H         1 UNK         0.3460 
     85 H85        25.9361  -45.5054  -59.8846 H         1 UNK         0.3460 
     86 H86        26.9273  -45.1295  -57.3737 H         1 UNK         0.2989 
     87 H87        24.9130  -45.7999  -55.5918 H         1 UNK         0.0559 
     88 H88        22.5375  -45.6548  -56.2569 H         1 UNK         0.0848 
     89 H89        23.0005  -47.3381  -56.0749 H         1 UNK         0.0848 
     90 H90        22.8362  -46.6363  -57.6840 H         1 UNK         0.0848 
     91 H91        26.0356  -47.5719  -56.2552 H         1 UNK         0.3144 
     92 H92        25.9050  -49.7249  -58.8644 H         1 UNK         0.0727 
     93 H93        28.3050  -49.5496  -59.5200 H         1 UNK         0.0790 
     94 H94        28.3533  -47.8809  -58.9550 H         1 UNK         0.0790 
     95 H95        27.3456  -48.3200  -60.3249 H         1 UNK         0.0790 
     96 H96        28.0409  -49.3680  -56.9802 H         1 UNK         0.3215 
     97 H97        26.2735  -50.4341  -54.0950 H         1 UNK         0.0863 
     98 H98        28.2498  -52.0512  -54.0261 H         1 UNK         0.0808 
     99 H99        28.3011  -51.9701  -55.7907 H         1 UNK         0.0808 
    100 H100       26.8852  -52.6100  -54.9828 H         1 UNK         0.0808 
    101 H101       29.0027  -49.7708  -54.3891 H         1 UNK         0.3118 
    102 H102       28.6633  -46.2111  -54.1967 H         1 UNK         0.0546 
    103 H103       28.4706  -47.1584  -51.8594 H         1 UNK         0.0828 
    104 H104       30.0460  -46.4947  -52.2426 H         1 UNK         0.0828 
    105 H105       29.8077  -48.2437  -52.2227 H         1 UNK         0.0828 
    106 H106       30.9134  -48.0042  -54.3550 H         1 UNK         0.3005 
    107 H107       31.1902  -47.9079  -57.9258 H         1 UNK         0.1257 
    108 H108       33.6106  -47.4990  -56.8101 H         1 UNK         0.0775 
    109 H109       32.7131  -46.4787  -55.7236 H         1 UNK         0.0775 
    110 H110       34.3148  -44.4626  -56.5929 H         1 UNK         0.0840 
    111 H111       33.5387  -43.3755  -57.7189 H         1 UNK         0.0840 
    112 H112       32.6308  -49.3559  -55.9358 H         1 UNK         0.2987 
    113 H113       30.5297  -52.1936  -55.8203 H         1 UNK         0.0785 
    114 H114       33.1249  -51.9326  -57.4280 H         1 UNK         0.0798 
    115 H115       31.6029  -52.5556  -58.0503 H         1 UNK         0.0798 
    116 H116       32.4464  -53.4282  -56.7824 H         1 UNK         0.0798 
    117 H117       33.1830  -51.8563  -54.9354 H         1 UNK         0.3079 
    118 H118       32.3698  -50.9177  -51.6763 H         1 UNK         0.0794 
    119 H119       34.5836  -52.0230  -53.4923 H         1 UNK         0.0786 
    120 H120       33.3611  -53.0113  -52.6939 H         1 UNK         0.0786 
    121 H121       34.5063  -52.0903  -51.7388 H         1 UNK         0.0786 
    122 H122       33.6925  -49.1560  -51.6663 H         1 UNK         0.3032 
    123 H123       36.0898  -48.1526  -52.7692 H         1 UNK         0.1094 
    124 H124       35.9856  -47.4230  -55.1885 H         1 UNK         0.0794 
    125 H125       34.7076  -46.2925  -54.7605 H         1 UNK         0.0794 
    126 H126       36.3078  -46.1145  -54.0675 H         1 UNK         0.0794 
    127 H127       35.0858  -46.8982  -51.2509 H         1 UNK         0.3016 
@<TRIPOS>BOND
     1    1    2 1    
     2    1   67 1    
     3    1   68 1    
     4    1   69 1    
     5    2    3 2    
     6    2    4 am   BACKBONE|DICT|INTERRES
     7    4    5 1    
     8    4   70 1    
     9    5    6 1    
    10    5   65 1    
    11    5   71 1    
    12    6    7 1    
    13    6   72 1    
    14    6   73 1    
    15    7    8 1    
    16    8    9 1    
    17    8   74 1    
    18    8   75 1    
    19    9   10 ar   
    20    9   14 ar   
    21   10   11 ar   
    22   10   76 1    
    23   11   12 ar   
    24   11   48 1    
    25   12   13 ar   
    26   12   77 1    
    27   13   14 ar   
    28   13   15 1    
    29   14   78 1    
    30   15   16 1    
    31   15   79 1    
    32   15   80 1    
    33   16   17 1    
    34   17   18 1    
    35   17   81 1    
    36   17   82 1    
    37   18   19 1    
    38   18   22 1    
    39   18   83 1    
    40   19   20 am   BACKBONE|DICT|INTERRES
    41   19   21 2    
    42   20   84 1    
    43   20   85 1    
    44   22   23 am   BACKBONE|DICT|INTERRES
    45   22   86 1    
    46   23   24 2    
    47   23   25 1    
    48   25   26 1    
    49   25   27 1    
    50   25   87 1    
    51   26   88 1    
    52   26   89 1    
    53   26   90 1    
    54   27   28 am   BACKBONE|DICT|INTERRES
    55   27   91 1    
    56   28   29 2    
    57   28   30 1    
    58   30   31 1    
    59   30   32 1    
    60   30   92 1    
    61   31   93 1    
    62   31   94 1    
    63   31   95 1    
    64   32   33 am   BACKBONE|DICT|INTERRES
    65   32   96 1    
    66   33   34 2    
    67   33   35 1    
    68   35   36 1    
    69   35   37 1    
    70   35   97 1    
    71   36   98 1    
    72   36   99 1    
    73   36  100 1    
    74   37   38 am   BACKBONE|DICT|INTERRES
    75   37  101 1    
    76   38   39 2    
    77   38   40 1    
    78   40   41 1    
    79   40   42 1    
    80   40  102 1    
    81   41  103 1    
    82   41  104 1    
    83   41  105 1    
    84   42   43 am   BACKBONE|DICT|INTERRES
    85   42  106 1    
    86   43   44 2    
    87   43   45 1    
    88   45   46 1    
    89   45   49 1    
    90   45  107 1    
    91   46   47 1    
    92   46  108 1    
    93   46  109 1    
    94   47   48 1    
    95   48  110 1    
    96   48  111 1    
    97   49   50 am   BACKBONE|DICT|INTERRES
    98   49  112 1    
    99   50   51 2    
   100   50   52 1    
   101   52   53 1    
   102   52   54 1    
   103   52  113 1    
   104   53  114 1    
   105   53  115 1    
   106   53  116 1    
   107   54   55 am   BACKBONE|DICT|INTERRES
   108   54  117 1    
   109   55   56 2    
   110   55   57 1    
   111   57   58 1    
   112   57   59 1    
   113   57  118 1    
   114   58  119 1    
   115   58  120 1    
   116   58  121 1    
   117   59   60 am   BACKBONE|DICT|INTERRES
   118   59  122 1    
   119   60   61 2    
   120   60   62 1    
   121   62   63 1    
   122   62   64 1    
   123   62  123 1    
   124   63  124 1    
   125   63  125 1    
   126   63  126 1    
   127   64   65 am   BACKBONE|DICT|INTERRES
   128   64  127 1    
   129   65   66 2    
@<TRIPOS>SUBSTRUCTURE
     1 UNK         1 GROUP             0       ****    0 ROOT    
