@<TRIPOS>MOLECULE
3R134
127   129    1
SMALL
USER_CHARGES


@<TRIPOS>ATOM
      1 CA         31.5229  -45.0250  -47.5144 C.3       0 UNK        -0.1968 
      2 C          31.8221  -45.4503  -48.9451 C.2       0 UNK         0.4852 
      3 O          31.0341  -46.1954  -49.5296 O.2       0 UNK        -0.5359 
      4 N          32.9492  -44.9741  -49.4970 N.am      1 UNK        -0.4300 
      5 CA         33.4745  -45.2532  -50.8443 C.3       1 UNK         0.0863 
      6 C6         32.4984  -44.8632  -51.9942 C.3       11 UNK        -0.0953 
      7 S7         31.9505  -43.1248  -51.9003 S.3       11 UNK        -0.2369 
      8 C8         32.9888  -42.3296  -53.1660 C.3       11 UNK         0.0226 
      9 C9         32.5708  -42.7112  -54.5796 C.ar      11 UNK        -0.0699 
     10 C10        33.4047  -43.5053  -55.3745 C.ar      11 UNK        -0.0804 
     11 C11        33.0372  -43.8313  -56.6840 C.ar      11 UNK        -0.0871 
     12 C12        31.8253  -43.3559  -57.1938 C.ar      11 UNK        -0.1008 
     13 C13        30.9785  -42.5728  -56.4060 C.ar      11 UNK        -0.0735 
     14 C14        31.3583  -42.2477  -55.1011 C.ar      11 UNK        -0.0945 
     15 C15        29.6565  -42.0853  -56.9745 C.3       11 UNK         0.0169 
     16 S16        28.3432  -43.3078  -56.6811 S.3       11 UNK        -0.2669 
     17 C17        27.1868  -42.9161  -58.0397 C.3       11 UNK        -0.0850 
     18 CA         25.6946  -43.1274  -57.6693 C.3       10 UNK         0.0855 
     19 C          24.7924  -42.8082  -58.8989 C.2       10 UNK         0.5543 
     20 N          24.1786  -43.7915  -59.5491 N.am      10 UNK        -0.7343 
     21 O          24.6530  -41.6451  -59.2686 O.2       10 UNK        -0.5027 
     22 N          25.4687  -44.4539  -57.0784 N.am      10 UNK        -0.4495 
     23 C          24.3423  -44.8681  -56.4858 C.2       10 UNK         0.4903 
     24 O          23.3819  -44.1320  -56.2540 O.2       10 UNK        -0.4860 
     25 CA         24.2803  -46.3586  -56.0910 C.3       9 UNK         0.0227 
     26 CB         22.8458  -46.9240  -56.1527 C.3       9 UNK        -0.1964 
     27 N          25.2067  -47.2150  -56.8478 N.am      9 UNK        -0.4231 
     28 C          25.2421  -47.4089  -58.1785 C.2       9 UNK         0.5014 
     29 O          24.4732  -46.8548  -58.9667 O.2       9 UNK        -0.5270 
     30 CA         26.3435  -48.3284  -58.7452 C.3       8 UNK         0.0284 
     31 CB         27.3656  -47.5013  -59.5436 C.3       8 UNK        -0.1977 
     32 N          27.0482  -49.1026  -57.7182 N.am      8 UNK        -0.4342 
     33 C          26.5281  -50.1645  -57.0826 C.2       8 UNK         0.5039 
     34 O          25.4403  -50.6616  -57.3770 O.2       8 UNK        -0.5547 
     35 CA         27.3217  -50.7662  -55.9041 C.3       7 UNK         0.0281 
     36 CB         28.0450  -52.0472  -56.3508 C.3       7 UNK        -0.1963 
     37 N          28.2934  -49.8597  -55.2824 N.am      7 UNK        -0.4444 
     38 C          28.0295  -48.6518  -54.7621 C.2       7 UNK         0.5104 
     39 O          26.8988  -48.1707  -54.6896 O.2       7 UNK        -0.5100 
     40 CA         29.2350  -47.8076  -54.3122 C.3       6 UNK         0.0396 
     41 CB         29.5192  -48.0403  -52.8211 C.3       6 UNK        -0.1801 
     42 N          30.4559  -48.0601  -55.0855 N.am      6 UNK        -0.4747 
     43 C          30.5896  -47.9270  -56.4154 C.2       6 UNK         0.5012 
     44 O          29.6729  -47.5856  -57.1635 O.2       6 UNK        -0.5003 
     45 CA         31.9544  -48.3207  -57.0091 C.3       5 UNK         0.0782 
     46 C46        33.0289  -47.2186  -56.8132 C.3       11 UNK        -0.0868 
     47 S47        33.1403  -46.1272  -58.2660 S.3       11 UNK        -0.2515 
     48 C48        33.9642  -44.6633  -57.5614 C.3       11 UNK         0.0199 
     49 N          32.3850  -49.6012  -56.4474 N.am      5 UNK        -0.4607 
     50 C          32.0461  -50.7990  -56.9418 C.2       4 UNK         0.5031 
     51 O          31.3876  -50.9526  -57.9702 O.2       4 UNK        -0.5119 
     52 CA         32.5161  -52.0425  -56.1650 C.3       4 UNK         0.0263 
     53 CB         33.8038  -52.6065  -56.7868 C.3       4 UNK        -0.1967 
     54 N          32.7388  -51.7955  -54.7378 N.am      4 UNK        -0.4237 
     55 C          31.7700  -51.5111  -53.8567 C.2       3 UNK         0.4908 
     56 O          30.5761  -51.4420  -54.1473 O.2       3 UNK        -0.5102 
     57 CA         32.2172  -51.2018  -52.4180 C.3       3 UNK         0.0241 
     58 CB         32.4055  -52.5030  -51.6215 C.3       3 UNK        -0.1971 
     59 N          33.4327  -50.3817  -52.3185 N.am      3 UNK        -0.4139 
     60 C          33.5988  -49.1784  -52.8848 C.2       2 UNK         0.5016 
     61 O          32.7950  -48.6658  -53.6666 O.2       2 UNK        -0.5319 
     62 CA         34.8812  -48.4079  -52.5432 C.3       2 UNK         0.0286 
     63 CB         35.8289  -48.3737  -53.7531 C.3       2 UNK        -0.1963 
     64 N          34.5295  -47.0386  -52.1636 N.am      2 UNK        -0.4790 
     65 C          33.9870  -46.7073  -50.9836 C.2       1 UNK         0.5024 
     66 O          33.9159  -47.4981  -50.0385 O.2       1 UNK        -0.4888 
     67 H67        32.2887  -44.3596  -47.1161 H         1 UNK         0.0892 
     68 H68        30.5665  -44.5046  -47.4707 H         1 UNK         0.0892 
     69 H69        31.4650  -45.9003  -46.8679 H         1 UNK         0.0892 
     70 H70        33.5452  -44.3856  -48.9323 H         1 UNK         0.3107 
     71 H71        34.3607  -44.6241  -50.9426 H         1 UNK         0.0773 
     72 H72        32.9522  -45.0319  -52.9708 H         1 UNK         0.0680 
     73 H73        31.6092  -45.4932  -51.9769 H         1 UNK         0.0680 
     74 H74        34.0350  -42.5797  -52.9829 H         1 UNK         0.0650 
     75 H75        32.9095  -41.2475  -53.0530 H         1 UNK         0.0650 
     76 H76        34.3465  -43.8583  -54.9773 H         1 UNK         0.1397 
     77 H77        31.5356  -43.6052  -58.2058 H         1 UNK         0.1363 
     78 H78        30.7082  -41.6392  -54.4871 H         1 UNK         0.1355 
     79 H79        29.3723  -41.1311  -56.5280 H         1 UNK         0.0707 
     80 H80        29.7658  -41.9069  -58.0455 H         1 UNK         0.0707 
     81 H81        27.3432  -41.8816  -58.3522 H         1 UNK         0.1034 
     82 H82        27.4591  -43.5353  -58.8970 H         1 UNK         0.1034 
     83 H83        25.4382  -42.3952  -56.9013 H         1 UNK         0.0482 
     84 H84        23.5974  -43.5708  -60.3420 H         1 UNK         0.3460 
     85 H85        24.2878  -44.7557  -59.2568 H         1 UNK         0.3460 
     86 H86        26.2159  -45.1202  -57.2000 H         1 UNK         0.2989 
     87 H87        24.6097  -46.4074  -55.0523 H         1 UNK         0.0559 
     88 H88        22.4232  -46.8459  -57.1550 H         1 UNK         0.0848 
     89 H89        22.1809  -46.3843  -55.4773 H         1 UNK         0.0848 
     90 H90        22.8203  -47.9732  -55.8587 H         1 UNK         0.0848 
     91 H91        25.8959  -47.6936  -56.2727 H         1 UNK         0.3144 
     92 H92        25.8618  -49.0271  -59.4325 H         1 UNK         0.0727 
     93 H93        28.1508  -48.1321  -59.9608 H         1 UNK         0.0790 
     94 H94        26.8858  -46.9878  -60.3780 H         1 UNK         0.0790 
     95 H95        27.8408  -46.7387  -58.9252 H         1 UNK         0.0790 
     96 H96        27.9529  -48.7457  -57.4249 H         1 UNK         0.3215 
     97 H97        26.5944  -51.0333  -55.1348 H         1 UNK         0.0863 
     98 H98        28.5031  -52.5608  -55.5055 H         1 UNK         0.0808 
     99 H99        28.8283  -51.8336  -57.0791 H         1 UNK         0.0808 
    100 H100       27.3505  -52.7495  -56.8141 H         1 UNK         0.0808 
    101 H101       29.2466  -50.2002  -55.2139 H         1 UNK         0.3118 
    102 H102       28.9755  -46.7565  -54.4538 H         1 UNK         0.0546 
    103 H103       30.3628  -47.4441  -52.4746 H         1 UNK         0.0828 
    104 H104       29.7443  -49.0866  -52.6157 H         1 UNK         0.0828 
    105 H105       28.6567  -47.7668  -52.2121 H         1 UNK         0.0828 
    106 H106       31.2775  -48.3381  -54.5487 H         1 UNK         0.3005 
    107 H107       31.7995  -48.4657  -58.0814 H         1 UNK         0.1257 
    108 H108       34.0161  -47.6665  -56.6905 H         1 UNK         0.0775 
    109 H109       32.8571  -46.6322  -55.9077 H         1 UNK         0.0775 
    110 H110       34.8502  -44.9826  -57.0102 H         1 UNK         0.0840 
    111 H111       34.3221  -44.0368  -58.3795 H         1 UNK         0.0840 
    112 H112       32.8606  -49.5543  -55.5547 H         1 UNK         0.2987 
    113 H113       31.7319  -52.7975  -56.2562 H         1 UNK         0.0785 
    114 H114       33.6609  -52.8283  -57.8454 H         1 UNK         0.0798 
    115 H115       34.1059  -53.5351  -56.3019 H         1 UNK         0.0798 
    116 H116       34.6323  -51.9010  -56.7110 H         1 UNK         0.0798 
    117 H117       33.6933  -51.8247  -54.4100 H         1 UNK         0.3079 
    118 H118       31.4128  -50.6351  -51.9461 H         1 UNK         0.0794 
    119 H119       32.6008  -52.2995  -50.5684 H         1 UNK         0.0786 
    120 H120       33.2329  -53.0995  -52.0079 H         1 UNK         0.0786 
    121 H121       31.5081  -53.1221  -51.6673 H         1 UNK         0.0786 
    122 H122       34.1517  -50.7257  -51.6980 H         1 UNK         0.3032 
    123 H123       35.3926  -48.8944  -51.7093 H         1 UNK         0.1094 
    124 H124       35.3711  -47.8861  -54.6144 H         1 UNK         0.0794 
    125 H125       36.7506  -47.8409  -53.5185 H         1 UNK         0.0794 
    126 H126       36.1083  -49.3826  -54.0596 H         1 UNK         0.0794 
    127 H127       34.5466  -46.3528  -52.9037 H         1 UNK         0.3016 
@<TRIPOS>BOND
     1    1    2 1    
     2    1   67 1    
     3    1   68 1    
     4    1   69 1    
     5    2    3 2    
     6    2    4 am   BACKBONE|DICT|INTERRES
     7    4    5 1    
     8    4   70 1    
     9    5    6 1    
    10    5   65 1    
    11    5   71 1    
    12    6    7 1    
    13    6   72 1    
    14    6   73 1    
    15    7    8 1    
    16    8    9 1    
    17    8   74 1    
    18    8   75 1    
    19    9   10 ar   
    20    9   14 ar   
    21   10   11 ar   
    22   10   76 1    
    23   11   12 ar   
    24   11   48 1    
    25   12   13 ar   
    26   12   77 1    
    27   13   14 ar   
    28   13   15 1    
    29   14   78 1    
    30   15   16 1    
    31   15   79 1    
    32   15   80 1    
    33   16   17 1    
    34   17   18 1    
    35   17   81 1    
    36   17   82 1    
    37   18   19 1    
    38   18   22 1    
    39   18   83 1    
    40   19   20 am   BACKBONE|DICT|INTERRES
    41   19   21 2    
    42   20   84 1    
    43   20   85 1    
    44   22   23 am   BACKBONE|DICT|INTERRES
    45   22   86 1    
    46   23   24 2    
    47   23   25 1    
    48   25   26 1    
    49   25   27 1    
    50   25   87 1    
    51   26   88 1    
    52   26   89 1    
    53   26   90 1    
    54   27   28 am   BACKBONE|DICT|INTERRES
    55   27   91 1    
    56   28   29 2    
    57   28   30 1    
    58   30   31 1    
    59   30   32 1    
    60   30   92 1    
    61   31   93 1    
    62   31   94 1    
    63   31   95 1    
    64   32   33 am   BACKBONE|DICT|INTERRES
    65   32   96 1    
    66   33   34 2    
    67   33   35 1    
    68   35   36 1    
    69   35   37 1    
    70   35   97 1    
    71   36   98 1    
    72   36   99 1    
    73   36  100 1    
    74   37   38 am   BACKBONE|DICT|INTERRES
    75   37  101 1    
    76   38   39 2    
    77   38   40 1    
    78   40   41 1    
    79   40   42 1    
    80   40  102 1    
    81   41  103 1    
    82   41  104 1    
    83   41  105 1    
    84   42   43 am   BACKBONE|DICT|INTERRES
    85   42  106 1    
    86   43   44 2    
    87   43   45 1    
    88   45   46 1    
    89   45   49 1    
    90   45  107 1    
    91   46   47 1    
    92   46  108 1    
    93   46  109 1    
    94   47   48 1    
    95   48  110 1    
    96   48  111 1    
    97   49   50 am   BACKBONE|DICT|INTERRES
    98   49  112 1    
    99   50   51 2    
   100   50   52 1    
   101   52   53 1    
   102   52   54 1    
   103   52  113 1    
   104   53  114 1    
   105   53  115 1    
   106   53  116 1    
   107   54   55 am   BACKBONE|DICT|INTERRES
   108   54  117 1    
   109   55   56 2    
   110   55   57 1    
   111   57   58 1    
   112   57   59 1    
   113   57  118 1    
   114   58  119 1    
   115   58  120 1    
   116   58  121 1    
   117   59   60 am   BACKBONE|DICT|INTERRES
   118   59  122 1    
   119   60   61 2    
   120   60   62 1    
   121   62   63 1    
   122   62   64 1    
   123   62  123 1    
   124   63  124 1    
   125   63  125 1    
   126   63  126 1    
   127   64   65 am   BACKBONE|DICT|INTERRES
   128   64  127 1    
   129   65   66 2    
@<TRIPOS>SUBSTRUCTURE
     1 UNK         1 GROUP             0       ****    0 ROOT    
