@<TRIPOS>MOLECULE
3R134
127   129    1
SMALL
USER_CHARGES


@<TRIPOS>ATOM
      1 CA         35.4511  -44.0103  -49.3304 C.3       0 UNK        -0.1968 
      2 C          34.0785  -44.5678  -49.6789 C.2       0 UNK         0.4852 
      3 O          33.3027  -44.8764  -48.7734 O.2       0 UNK        -0.5359 
      4 N          33.7851  -44.6960  -50.9817 N.am      1 UNK        -0.4300 
      5 CA         32.5277  -45.2019  -51.5536 C.3       1 UNK         0.0863 
      6 C6         31.3063  -44.2740  -51.3087 C.3       11 UNK        -0.0953 
      7 S7         31.5324  -42.6065  -52.0129 S.3       11 UNK        -0.2369 
      8 C8         30.4007  -42.6330  -53.4513 C.3       11 UNK         0.0226 
      9 C9         30.9723  -43.1684  -54.7690 C.ar      11 UNK        -0.0699 
     10 C10        32.3185  -43.5221  -54.9401 C.ar      11 UNK        -0.0804 
     11 C11        32.8020  -43.9433  -56.1841 C.ar      11 UNK        -0.0871 
     12 C12        31.9253  -43.9968  -57.2744 C.ar      11 UNK        -0.1008 
     13 C13        30.5813  -43.6426  -57.1248 C.ar      11 UNK        -0.0735 
     14 C14        30.1128  -43.2436  -55.8699 C.ar      11 UNK        -0.0945 
     15 C15        29.6405  -43.6406  -58.3224 C.3       11 UNK         0.0169 
     16 S16        28.7128  -45.1992  -58.4433 S.3       11 UNK        -0.2669 
     17 C17        27.0668  -44.6213  -58.9726 C.3       11 UNK        -0.0850 
     18 CA         26.1750  -44.1855  -57.7811 C.3       10 UNK         0.0855 
     19 C          24.8206  -43.6245  -58.2902 C.2       10 UNK         0.5543 
     20 N          24.7150  -42.3129  -58.4550 N.am      10 UNK        -0.7343 
     21 O          23.8858  -44.3669  -58.5829 O.2       10 UNK        -0.5027 
     22 N          25.9958  -45.2624  -56.7947 N.am      10 UNK        -0.4495 
     23 C          25.5610  -45.0651  -55.5413 C.2       10 UNK         0.4903 
     24 O          25.2984  -43.9500  -55.0872 O.2       10 UNK        -0.4860 
     25 CA         25.4387  -46.2961  -54.6176 C.3       9 UNK         0.0227 
     26 CB         24.3990  -46.1041  -53.4920 C.3       9 UNK        -0.1964 
     27 N          25.2271  -47.5590  -55.3315 N.am      9 UNK        -0.4231 
     28 C          24.1629  -47.9150  -56.0700 C.2       9 UNK         0.5014 
     29 O          23.1424  -47.2329  -56.1764 O.2       9 UNK        -0.5270 
     30 CA         24.2590  -49.2645  -56.8194 C.3       8 UNK         0.0284 
     31 CB         23.3765  -49.3023  -58.0859 C.3       8 UNK        -0.1977 
     32 N          25.6384  -49.6645  -57.1381 N.am      8 UNK        -0.4342 
     33 C          26.5275  -48.9634  -57.8562 C.2       8 UNK         0.5039 
     34 O          26.2801  -47.8881  -58.4046 O.2       8 UNK        -0.5547 
     35 CA         27.9601  -49.5164  -57.8948 C.3       7 UNK         0.0281 
     36 CB         28.4315  -49.7407  -59.3405 C.3       7 UNK        -0.1963 
     37 N          28.8834  -48.6010  -57.2256 N.am      7 UNK        -0.4444 
     38 C          28.8251  -48.2181  -55.9448 C.2       7 UNK         0.5104 
     39 O          27.9877  -48.6414  -55.1436 O.2       7 UNK        -0.5100 
     40 CA         29.8811  -47.1920  -55.4928 C.3       6 UNK         0.0396 
     41 CB         29.7444  -46.8076  -54.0105 C.3       6 UNK        -0.1801 
     42 N          31.2478  -47.6514  -55.7344 N.am      6 UNK        -0.4747 
     43 C          31.8887  -47.6644  -56.9122 C.2       6 UNK         0.5012 
     44 O          31.3651  -47.3656  -57.9855 O.2       6 UNK        -0.5003 
     45 CA         33.3516  -48.1322  -56.8860 C.3       5 UNK         0.0782 
     46 C46        34.2775  -47.0838  -56.2188 C.3       11 UNK        -0.0868 
     47 S47        34.6743  -45.7128  -57.3546 S.3       11 UNK        -0.2515 
     48 C48        34.2926  -44.2379  -56.3493 C.3       11 UNK         0.0199 
     49 N          33.4245  -49.4307  -56.2164 N.am      5 UNK        -0.4607 
     50 C          33.4930  -50.6125  -56.8439 C.2       4 UNK         0.5031 
     51 O          33.6195  -50.7357  -58.0624 O.2       4 UNK        -0.5119 
     52 CA         33.4001  -51.8805  -55.9726 C.3       4 UNK         0.0263 
     53 CB         34.8052  -52.3734  -55.5910 C.3       4 UNK        -0.1967 
     54 N          32.6093  -51.6883  -54.7545 N.am      4 UNK        -0.4237 
     55 C          31.2905  -51.4474  -54.7290 C.2       3 UNK         0.4908 
     56 O          30.5709  -51.4873  -55.7270 O.2       3 UNK        -0.5102 
     57 CA         30.6639  -51.0770  -53.3700 C.3       3 UNK         0.0241 
     58 CB         29.9165  -52.2843  -52.7807 C.3       3 UNK        -0.1971 
     59 N          31.5906  -50.5443  -52.3578 N.am      3 UNK        -0.4139 
     60 C          32.3663  -49.4615  -52.5040 C.2       2 UNK         0.5016 
     61 O          32.5083  -48.8573  -53.5700 O.2       2 UNK        -0.5319 
     62 CA         33.1427  -48.9781  -51.2685 C.3       2 UNK         0.0286 
     63 CB         34.5400  -49.6166  -51.2313 C.3       2 UNK        -0.1963 
     64 N          33.2817  -47.5203  -51.3068 N.am      2 UNK        -0.4790 
     65 C          32.2556  -46.6696  -51.1585 C.2       1 UNK         0.5024 
     66 O          31.1414  -47.0163  -50.7605 O.2       1 UNK        -0.4888 
     67 H67        36.0354  -43.7743  -50.2197 H         1 UNK         0.0892 
     68 H68        35.3466  -43.0985  -48.7429 H         1 UNK         0.0892 
     69 H69        36.0111  -44.7345  -48.7394 H         1 UNK         0.0892 
     70 H70        34.4794  -44.4151  -51.6597 H         1 UNK         0.3107 
     71 H71        32.6867  -45.2412  -52.6314 H         1 UNK         0.0773 
     72 H72        30.3986  -44.7098  -51.7280 H         1 UNK         0.0680 
     73 H73        31.1150  -44.1683  -50.2398 H         1 UNK         0.0680 
     74 H74        30.0808  -41.6048  -53.6256 H         1 UNK         0.0650 
     75 H75        29.4967  -43.1868  -53.1939 H         1 UNK         0.0650 
     76 H76        33.0116  -43.4370  -54.1170 H         1 UNK         0.1397 
     77 H77        32.2919  -44.2975  -58.2463 H         1 UNK         0.1363 
     78 H78        29.0745  -42.9615  -55.7577 H         1 UNK         0.1355 
     79 H79        30.1981  -43.4859  -59.2473 H         1 UNK         0.0707 
     80 H80        28.9526  -42.7983  -58.2376 H         1 UNK         0.0707 
     81 H81        27.1926  -43.8041  -59.6855 H         1 UNK         0.1034 
     82 H82        26.5872  -45.4308  -59.5264 H         1 UNK         0.1034 
     83 H83        26.6970  -43.3736  -57.2702 H         1 UNK         0.0482 
     84 H84        25.4772  -41.6940  -58.2259 H         1 UNK         0.3460 
     85 H85        23.8487  -41.9313  -58.8020 H         1 UNK         0.3460 
     86 H86        26.1453  -46.2044  -57.1403 H         1 UNK         0.2989 
     87 H87        26.4117  -46.3971  -54.1372 H         1 UNK         0.0559 
     88 H88        24.6645  -45.2604  -52.8540 H         1 UNK         0.0848 
     89 H89        23.4027  -45.9068  -53.8885 H         1 UNK         0.0848 
     90 H90        24.3385  -46.9841  -52.8519 H         1 UNK         0.0848 
     91 H91        26.0286  -48.1845  -55.3225 H         1 UNK         0.3144 
     92 H92        23.8757  -50.0169  -56.1285 H         1 UNK         0.0727 
     93 H93        23.4513  -50.2635  -58.5942 H         1 UNK         0.0790 
     94 H94        23.6574  -48.5237  -58.7962 H         1 UNK         0.0790 
     95 H95        22.3255  -49.1504  -57.8370 H         1 UNK         0.0790 
     96 H96        25.9541  -50.5177  -56.6958 H         1 UNK         0.3215 
     97 H97        27.9983  -50.4718  -57.3670 H         1 UNK         0.0863 
     98 H98        27.7656  -50.4261  -59.8662 H         1 UNK         0.0808 
     99 H99        28.4532  -48.8075  -59.9055 H         1 UNK         0.0808 
    100 H100       29.4321  -50.1728  -59.3684 H         1 UNK         0.0808 
    101 H101       29.6038  -48.1681  -57.7969 H         1 UNK         0.3118 
    102 H102       29.7235  -46.2830  -56.0704 H         1 UNK         0.0546 
    103 H103       28.7627  -46.3836  -53.8021 H         1 UNK         0.0828 
    104 H104       30.4822  -46.0550  -53.7371 H         1 UNK         0.0828 
    105 H105       29.8782  -47.6673  -53.3532 H         1 UNK         0.0828 
    106 H106       31.7439  -48.0010  -54.9156 H         1 UNK         0.3005 
    107 H107       33.6705  -48.2500  -57.9246 H         1 UNK         0.1257 
    108 H108       35.2259  -47.5497  -55.9463 H         1 UNK         0.0775 
    109 H109       33.8558  -46.7045  -55.2856 H         1 UNK         0.0775 
    110 H110       34.7797  -44.3434  -55.3786 H         1 UNK         0.0840 
    111 H111       34.7547  -43.3727  -56.8262 H         1 UNK         0.0840 
    112 H112       33.2651  -49.4162  -55.2129 H         1 UNK         0.2987 
    113 H113       32.9144  -52.6551  -56.5701 H         1 UNK         0.0785 
    114 H114       35.4107  -52.5508  -56.4810 H         1 UNK         0.0798 
    115 H115       34.7609  -53.3128  -55.0395 H         1 UNK         0.0798 
    116 H116       35.3361  -51.6457  -54.9758 H         1 UNK         0.0798 
    117 H117       33.1164  -51.6475  -53.8829 H         1 UNK         0.3079 
    118 H118       29.9312  -50.2926  -53.5725 H         1 UNK         0.0794 
    119 H119       29.1961  -52.6857  -53.4953 H         1 UNK         0.0786 
    120 H120       29.3587  -52.0090  -51.8854 H         1 UNK         0.0786 
    121 H121       30.5999  -53.0928  -52.5179 H         1 UNK         0.0786 
    122 H122       31.5602  -50.9932  -51.4532 H         1 UNK         0.3032 
    123 H123       32.5939  -49.2555  -50.3654 H         1 UNK         0.1094 
    124 H124       35.1069  -49.2791  -50.3632 H         1 UNK         0.0794 
    125 H125       34.4731  -50.7036  -51.1689 H         1 UNK         0.0794 
    126 H126       35.1191  -49.3763  -52.1242 H         1 UNK         0.0794 
    127 H127       34.1601  -47.1597  -51.6492 H         1 UNK         0.3016 
@<TRIPOS>BOND
     1    1    2 1    
     2    1   67 1    
     3    1   68 1    
     4    1   69 1    
     5    2    3 2    
     6    2    4 am   BACKBONE|DICT|INTERRES
     7    4    5 1    
     8    4   70 1    
     9    5    6 1    
    10    5   65 1    
    11    5   71 1    
    12    6    7 1    
    13    6   72 1    
    14    6   73 1    
    15    7    8 1    
    16    8    9 1    
    17    8   74 1    
    18    8   75 1    
    19    9   10 ar   
    20    9   14 ar   
    21   10   11 ar   
    22   10   76 1    
    23   11   12 ar   
    24   11   48 1    
    25   12   13 ar   
    26   12   77 1    
    27   13   14 ar   
    28   13   15 1    
    29   14   78 1    
    30   15   16 1    
    31   15   79 1    
    32   15   80 1    
    33   16   17 1    
    34   17   18 1    
    35   17   81 1    
    36   17   82 1    
    37   18   19 1    
    38   18   22 1    
    39   18   83 1    
    40   19   20 am   BACKBONE|DICT|INTERRES
    41   19   21 2    
    42   20   84 1    
    43   20   85 1    
    44   22   23 am   BACKBONE|DICT|INTERRES
    45   22   86 1    
    46   23   24 2    
    47   23   25 1    
    48   25   26 1    
    49   25   27 1    
    50   25   87 1    
    51   26   88 1    
    52   26   89 1    
    53   26   90 1    
    54   27   28 am   BACKBONE|DICT|INTERRES
    55   27   91 1    
    56   28   29 2    
    57   28   30 1    
    58   30   31 1    
    59   30   32 1    
    60   30   92 1    
    61   31   93 1    
    62   31   94 1    
    63   31   95 1    
    64   32   33 am   BACKBONE|DICT|INTERRES
    65   32   96 1    
    66   33   34 2    
    67   33   35 1    
    68   35   36 1    
    69   35   37 1    
    70   35   97 1    
    71   36   98 1    
    72   36   99 1    
    73   36  100 1    
    74   37   38 am   BACKBONE|DICT|INTERRES
    75   37  101 1    
    76   38   39 2    
    77   38   40 1    
    78   40   41 1    
    79   40   42 1    
    80   40  102 1    
    81   41  103 1    
    82   41  104 1    
    83   41  105 1    
    84   42   43 am   BACKBONE|DICT|INTERRES
    85   42  106 1    
    86   43   44 2    
    87   43   45 1    
    88   45   46 1    
    89   45   49 1    
    90   45  107 1    
    91   46   47 1    
    92   46  108 1    
    93   46  109 1    
    94   47   48 1    
    95   48  110 1    
    96   48  111 1    
    97   49   50 am   BACKBONE|DICT|INTERRES
    98   49  112 1    
    99   50   51 2    
   100   50   52 1    
   101   52   53 1    
   102   52   54 1    
   103   52  113 1    
   104   53  114 1    
   105   53  115 1    
   106   53  116 1    
   107   54   55 am   BACKBONE|DICT|INTERRES
   108   54  117 1    
   109   55   56 2    
   110   55   57 1    
   111   57   58 1    
   112   57   59 1    
   113   57  118 1    
   114   58  119 1    
   115   58  120 1    
   116   58  121 1    
   117   59   60 am   BACKBONE|DICT|INTERRES
   118   59  122 1    
   119   60   61 2    
   120   60   62 1    
   121   62   63 1    
   122   62   64 1    
   123   62  123 1    
   124   63  124 1    
   125   63  125 1    
   126   63  126 1    
   127   64   65 am   BACKBONE|DICT|INTERRES
   128   64  127 1    
   129   65   66 2    
@<TRIPOS>SUBSTRUCTURE
     1 UNK         1 GROUP             0       ****    0 ROOT    
