@<TRIPOS>MOLECULE
3R134
127   129    1
SMALL
USER_CHARGES


@<TRIPOS>ATOM
      1 CA         28.8997  -44.9633  -53.3098 C.3       0 UNK        -0.1968 
      2 C          30.0297  -45.2648  -52.3380 C.2       0 UNK         0.4852 
      3 O          29.7648  -45.6502  -51.1980 O.2       0 UNK        -0.5359 
      4 N          31.2831  -45.0804  -52.7752 N.am      1 UNK        -0.4300 
      5 CA         32.4966  -45.3863  -52.0067 C.3       1 UNK         0.0863 
      6 C6         33.7492  -44.7190  -52.6294 C.3       11 UNK        -0.0953 
      7 S7         33.6615  -42.8990  -52.5139 S.3       11 UNK        -0.2369 
      8 C8         34.1977  -42.3632  -54.1692 C.3       11 UNK         0.0226 
      9 C9         33.1646  -42.6814  -55.2393 C.ar      11 UNK        -0.0699 
     10 C10        33.3956  -43.7129  -56.1541 C.ar      11 UNK        -0.0804 
     11 C11        32.4431  -44.0231  -57.1288 C.ar      11 UNK        -0.0871 
     12 C12        31.2672  -43.2718  -57.1993 C.ar      11 UNK        -0.1008 
     13 C13        31.0203  -42.2405  -56.2902 C.ar      11 UNK        -0.0735 
     14 C14        31.9783  -41.9438  -55.3158 C.ar      11 UNK        -0.0945 
     15 C15        29.7094  -41.4684  -56.3515 C.3       11 UNK         0.0169 
     16 S16        28.6295  -41.9379  -54.9659 S.3       11 UNK        -0.2669 
     17 C17        26.9579  -41.5433  -55.5808 C.3       11 UNK        -0.0850 
     18 CA         26.0927  -42.8189  -55.7866 C.3       10 UNK         0.0855 
     19 C          24.5880  -42.4513  -55.9518 C.2       10 UNK         0.5543 
     20 N          23.9446  -42.7500  -57.0742 N.am      10 UNK        -0.7343 
     21 O          23.9912  -41.8878  -55.0378 O.2       10 UNK        -0.5027 
     22 N          26.6311  -43.6732  -56.8599 N.am      10 UNK        -0.4495 
     23 C          26.4135  -44.9891  -56.9901 C.2       10 UNK         0.4903 
     24 O          25.7552  -45.6619  -56.1945 O.2       10 UNK        -0.4860 
     25 CA         27.0035  -45.6397  -58.2524 C.3       9 UNK         0.0227 
     26 CB         28.4489  -45.1859  -58.5355 C.3       9 UNK        -0.1964 
     27 N          26.9778  -47.1013  -58.1717 N.am      9 UNK        -0.4231 
     28 C          26.7696  -47.9046  -59.2234 C.2       9 UNK         0.5014 
     29 O          26.4520  -47.4884  -60.3394 O.2       9 UNK        -0.5270 
     30 CA         26.9961  -49.4175  -59.0578 C.3       8 UNK         0.0284 
     31 CB         28.3137  -49.8282  -59.7385 C.3       8 UNK        -0.1977 
     32 N          27.0150  -49.9004  -57.6765 N.am      8 UNK        -0.4342 
     33 C          25.9186  -50.1490  -56.9477 C.2       8 UNK         0.5039 
     34 O          24.7771  -49.8648  -57.3123 O.2       8 UNK        -0.5547 
     35 CA         26.1198  -50.8679  -55.6050 C.3       7 UNK         0.0281 
     36 CB         26.2986  -52.3788  -55.8296 C.3       7 UNK        -0.1963 
     37 N          27.2857  -50.3478  -54.8929 N.am      7 UNK        -0.4444 
     38 C          27.2303  -49.5733  -53.8014 C.2       7 UNK         0.5104 
     39 O          26.1888  -49.2899  -53.2083 O.2       7 UNK        -0.5100 
     40 CA         28.5641  -49.0040  -53.2816 C.3       6 UNK         0.0396 
     41 CB         29.1285  -49.8958  -52.1653 C.3       6 UNK        -0.1801 
     42 N          29.5831  -48.8275  -54.3210 N.am      6 UNK        -0.4747 
     43 C          29.4544  -48.0526  -55.4106 C.2       6 UNK         0.5012 
     44 O          28.4582  -47.3755  -55.6521 O.2       6 UNK        -0.5003 
     45 CA         30.6089  -48.0571  -56.4327 C.3       5 UNK         0.0782 
     46 C46        31.5818  -46.9054  -56.0890 C.3       11 UNK        -0.0868 
     47 S47        32.9909  -46.7656  -57.2418 S.3       11 UNK        -0.2515 
     48 C48        32.6619  -45.1842  -58.0931 C.3       11 UNK         0.0199 
     49 N          31.3063  -49.3434  -56.5251 N.am      5 UNK        -0.4607 
     50 C          30.7685  -50.5629  -56.6744 C.2       4 UNK         0.5031 
     51 O          29.5642  -50.7692  -56.8351 O.2       4 UNK        -0.5119 
     52 CA         31.7363  -51.7567  -56.5473 C.3       4 UNK         0.0263 
     53 CB         32.1699  -52.2395  -57.9399 C.3       4 UNK        -0.1967 
     54 N          32.9286  -51.4660  -55.7331 N.am      4 UNK        -0.4237 
     55 C          32.8959  -51.0536  -54.4563 C.2       3 UNK         0.4908 
     56 O          31.8493  -50.9589  -53.8075 O.2       3 UNK        -0.5102 
     57 CA         34.2240  -50.6071  -53.8204 C.3       3 UNK         0.0241 
     58 CB         35.0909  -49.7650  -54.7831 C.3       3 UNK        -0.1971 
     59 N          33.8775  -49.8219  -52.6422 N.am      3 UNK        -0.4139 
     60 C          34.6505  -49.4536  -51.6214 C.2       2 UNK         0.5016 
     61 O          35.8528  -49.7128  -51.5368 O.2       2 UNK        -0.5319 
     62 CA         33.9388  -48.6521  -50.5105 C.3       2 UNK         0.0286 
     63 CB         34.7622  -48.6016  -49.2098 C.3       2 UNK        -0.1963 
     64 N          33.6034  -47.2782  -50.9068 N.am      2 UNK        -0.4790 
     65 C          32.6970  -46.9087  -51.8252 C.2       1 UNK         0.5024 
     66 O          32.0435  -47.7094  -52.4982 O.2       1 UNK        -0.4888 
     67 H67        28.3500  -44.0837  -52.9780 H         1 UNK         0.0892 
     68 H68        29.2677  -44.7823  -54.3198 H         1 UNK         0.0892 
     69 H69        28.1983  -45.7943  -53.3572 H         1 UNK         0.0892 
     70 H70        31.4399  -44.7309  -53.7090 H         1 UNK         0.3107 
     71 H71        32.3570  -44.9744  -51.0046 H         1 UNK         0.0773 
     72 H72        34.6600  -45.0239  -52.1111 H         1 UNK         0.0680 
     73 H73        33.8736  -45.0322  -53.6670 H         1 UNK         0.0680 
     74 H74        35.1593  -42.8229  -54.4028 H         1 UNK         0.0650 
     75 H75        34.3710  -41.2864  -54.1495 H         1 UNK         0.0650 
     76 H76        34.3081  -44.2909  -56.0974 H         1 UNK         0.1397 
     77 H77        30.5362  -43.4957  -57.9600 H         1 UNK         0.1363 
     78 H78        31.7913  -41.1513  -54.6038 H         1 UNK         0.1355 
     79 H79        29.9050  -40.3958  -56.3137 H         1 UNK         0.0707 
     80 H80        29.2006  -41.6604  -57.2972 H         1 UNK         0.0707 
     81 H81        26.5002  -40.8853  -54.8392 H         1 UNK         0.1034 
     82 H82        27.0158  -40.9584  -56.5002 H         1 UNK         0.1034 
     83 H83        26.1437  -43.3959  -54.8608 H         1 UNK         0.0482 
     84 H84        24.4212  -43.2167  -57.8284 H         1 UNK         0.3460 
     85 H85        22.9701  -42.5090  -57.1641 H         1 UNK         0.3460 
     86 H86        27.1664  -43.1989  -57.5703 H         1 UNK         0.2989 
     87 H87        26.3701  -45.3103  -59.0785 H         1 UNK         0.0559 
     88 H88        29.0927  -45.3595  -57.6725 H         1 UNK         0.0848 
     89 H89        28.4899  -44.1256  -58.7835 H         1 UNK         0.0848 
     90 H90        28.8776  -45.7203  -59.3835 H         1 UNK         0.0848 
     91 H91        27.1908  -47.4882  -57.2567 H         1 UNK         0.3144 
     92 H92        26.1809  -49.9211  -59.5822 H         1 UNK         0.0727 
     93 H93        28.4684  -50.9063  -59.6889 H         1 UNK         0.0790 
     94 H94        29.1750  -49.3450  -59.2761 H         1 UNK         0.0790 
     95 H95        28.3133  -49.5510  -60.7936 H         1 UNK         0.0790 
     96 H96        27.9220  -50.1988  -57.3219 H         1 UNK         0.3215 
     97 H97        25.2129  -50.7208  -55.0142 H         1 UNK         0.0863 
     98 H98        26.3764  -52.9117  -54.8819 H         1 UNK         0.0808 
     99 H99        27.1942  -52.6003  -56.4120 H         1 UNK         0.0808 
    100 H100       25.4466  -52.7971  -56.3674 H         1 UNK         0.0808 
    101 H101       28.1921  -50.5115  -55.3171 H         1 UNK         0.3118 
    102 H102       28.3566  -48.0235  -52.8526 H         1 UNK         0.0546 
    103 H103       28.4060  -50.0150  -51.3569 H         1 UNK         0.0828 
    104 H104       30.0304  -49.4638  -51.7315 H         1 UNK         0.0828 
    105 H105       29.3769  -50.8923  -52.5323 H         1 UNK         0.0828 
    106 H106       30.4392  -49.3581  -54.2000 H         1 UNK         0.3005 
    107 H107       30.1696  -47.8606  -57.4128 H         1 UNK         0.1257 
    108 H108       32.0002  -47.0468  -55.0909 H         1 UNK         0.0775 
    109 H109       31.0386  -45.9607  -56.0501 H         1 UNK         0.0775 
    110 H110       33.5052  -44.9508  -58.7444 H         1 UNK         0.0840 
    111 H111       31.7974  -45.3166  -58.7457 H         1 UNK         0.0840 
    112 H112       32.3084  -49.2879  -56.4227 H         1 UNK         0.2987 
    113 H113       31.1890  -52.5639  -56.0562 H         1 UNK         0.0785 
    114 H114       31.3022  -52.4813  -58.5559 H         1 UNK         0.0798 
    115 H115       32.7799  -53.1407  -57.8763 H         1 UNK         0.0798 
    116 H116       32.7445  -51.4795  -58.4711 H         1 UNK         0.0798 
    117 H117       33.8219  -51.5279  -56.2003 H         1 UNK         0.3079 
    118 H118       34.7709  -51.4980  -53.5065 H         1 UNK         0.0794 
    119 H119       34.5476  -48.8962  -55.1579 H         1 UNK         0.0786 
    120 H120       35.4220  -50.3476  -55.6430 H         1 UNK         0.0786 
    121 H121       35.9923  -49.4000  -54.2908 H         1 UNK         0.0786 
    122 H122       32.9040  -49.5262  -52.6277 H         1 UNK         0.3032 
    123 H123       33.0054  -49.1746  -50.2874 H         1 UNK         0.1094 
    124 H124       35.6973  -48.0559  -49.3429 H         1 UNK         0.0794 
    125 H125       34.2049  -48.1225  -48.4045 H         1 UNK         0.0794 
    126 H126       35.0172  -49.6065  -48.8700 H         1 UNK         0.0794 
    127 H127       34.1090  -46.5507  -50.4217 H         1 UNK         0.3016 
@<TRIPOS>BOND
     1    1    2 1    
     2    1   67 1    
     3    1   68 1    
     4    1   69 1    
     5    2    3 2    
     6    2    4 am   BACKBONE|DICT|INTERRES
     7    4    5 1    
     8    4   70 1    
     9    5    6 1    
    10    5   65 1    
    11    5   71 1    
    12    6    7 1    
    13    6   72 1    
    14    6   73 1    
    15    7    8 1    
    16    8    9 1    
    17    8   74 1    
    18    8   75 1    
    19    9   10 ar   
    20    9   14 ar   
    21   10   11 ar   
    22   10   76 1    
    23   11   12 ar   
    24   11   48 1    
    25   12   13 ar   
    26   12   77 1    
    27   13   14 ar   
    28   13   15 1    
    29   14   78 1    
    30   15   16 1    
    31   15   79 1    
    32   15   80 1    
    33   16   17 1    
    34   17   18 1    
    35   17   81 1    
    36   17   82 1    
    37   18   19 1    
    38   18   22 1    
    39   18   83 1    
    40   19   20 am   BACKBONE|DICT|INTERRES
    41   19   21 2    
    42   20   84 1    
    43   20   85 1    
    44   22   23 am   BACKBONE|DICT|INTERRES
    45   22   86 1    
    46   23   24 2    
    47   23   25 1    
    48   25   26 1    
    49   25   27 1    
    50   25   87 1    
    51   26   88 1    
    52   26   89 1    
    53   26   90 1    
    54   27   28 am   BACKBONE|DICT|INTERRES
    55   27   91 1    
    56   28   29 2    
    57   28   30 1    
    58   30   31 1    
    59   30   32 1    
    60   30   92 1    
    61   31   93 1    
    62   31   94 1    
    63   31   95 1    
    64   32   33 am   BACKBONE|DICT|INTERRES
    65   32   96 1    
    66   33   34 2    
    67   33   35 1    
    68   35   36 1    
    69   35   37 1    
    70   35   97 1    
    71   36   98 1    
    72   36   99 1    
    73   36  100 1    
    74   37   38 am   BACKBONE|DICT|INTERRES
    75   37  101 1    
    76   38   39 2    
    77   38   40 1    
    78   40   41 1    
    79   40   42 1    
    80   40  102 1    
    81   41  103 1    
    82   41  104 1    
    83   41  105 1    
    84   42   43 am   BACKBONE|DICT|INTERRES
    85   42  106 1    
    86   43   44 2    
    87   43   45 1    
    88   45   46 1    
    89   45   49 1    
    90   45  107 1    
    91   46   47 1    
    92   46  108 1    
    93   46  109 1    
    94   47   48 1    
    95   48  110 1    
    96   48  111 1    
    97   49   50 am   BACKBONE|DICT|INTERRES
    98   49  112 1    
    99   50   51 2    
   100   50   52 1    
   101   52   53 1    
   102   52   54 1    
   103   52  113 1    
   104   53  114 1    
   105   53  115 1    
   106   53  116 1    
   107   54   55 am   BACKBONE|DICT|INTERRES
   108   54  117 1    
   109   55   56 2    
   110   55   57 1    
   111   57   58 1    
   112   57   59 1    
   113   57  118 1    
   114   58  119 1    
   115   58  120 1    
   116   58  121 1    
   117   59   60 am   BACKBONE|DICT|INTERRES
   118   59  122 1    
   119   60   61 2    
   120   60   62 1    
   121   62   63 1    
   122   62   64 1    
   123   62  123 1    
   124   63  124 1    
   125   63  125 1    
   126   63  126 1    
   127   64   65 am   BACKBONE|DICT|INTERRES
   128   64  127 1    
   129   65   66 2    
@<TRIPOS>SUBSTRUCTURE
     1 UNK         1 GROUP             0       ****    0 ROOT    
