@<TRIPOS>MOLECULE
3R134
127   129    1
SMALL
USER_CHARGES


@<TRIPOS>ATOM
      1 CA         35.1593  -46.1742  -47.5935 C.3       0 UNK        -0.1968 
      2 C          35.6188  -46.0973  -49.0417 C.2       0 UNK         0.4852 
      3 O          36.6914  -46.6059  -49.3729 O.2       0 UNK        -0.5359 
      4 N          34.8128  -45.4761  -49.9123 N.am      1 UNK        -0.4300 
      5 CA         35.0611  -45.2880  -51.3469 C.3       1 UNK         0.0863 
      6 C6         34.2869  -44.0626  -51.9058 C.3       11 UNK        -0.0953 
      7 S7         32.5065  -44.0178  -51.4876 S.3       11 UNK        -0.2369 
      8 C8         31.9056  -42.7393  -52.6375 C.3       11 UNK         0.0226 
      9 C9         31.3717  -43.3430  -53.9289 C.ar      11 UNK        -0.0699 
     10 C10        32.2398  -43.6597  -54.9772 C.ar      11 UNK        -0.0804 
     11 C11        31.7530  -44.2273  -56.1581 C.ar      11 UNK        -0.0871 
     12 C12        30.3819  -44.4659  -56.2932 C.ar      11 UNK        -0.1008 
     13 C13        29.4988  -44.1344  -55.2601 C.ar      11 UNK        -0.0735 
     14 C14        30.0012  -43.5754  -54.0804 C.ar      11 UNK        -0.0945 
     15 C15        28.0054  -44.3957  -55.4026 C.3       11 UNK         0.0169 
     16 S16        27.1914  -43.1250  -56.4220 S.3       11 UNK        -0.2669 
     17 C17        27.3956  -43.8093  -58.1040 C.3       11 UNK        -0.0850 
     18 CA         26.1069  -43.7157  -58.9645 C.3       10 UNK         0.0855 
     19 C          26.3635  -44.3051  -60.3842 C.2       10 UNK         0.5543 
     20 N          25.7435  -45.4140  -60.7732 N.am      10 UNK        -0.7343 
     21 O          27.1444  -43.7408  -61.1461 O.2       10 UNK        -0.5027 
     22 N          24.9345  -44.2776  -58.2735 N.am      10 UNK        -0.4495 
     23 C          23.6599  -44.0767  -58.6341 C.2       10 UNK         0.4903 
     24 O          23.3214  -43.2958  -59.5252 O.2       10 UNK        -0.4860 
     25 CA         22.5829  -44.8891  -57.8783 C.3       9 UNK         0.0227 
     26 CB         21.3259  -45.1319  -58.7410 C.3       9 UNK        -0.1964 
     27 N          23.0620  -46.1619  -57.3129 N.am      9 UNK        -0.4231 
     28 C          23.6549  -47.1659  -57.9754 C.2       9 UNK         0.5014 
     29 O          23.9094  -47.1490  -59.1838 O.2       9 UNK        -0.5270 
     30 CA         24.0605  -48.3873  -57.1460 C.3       8 UNK         0.0284 
     31 CB         23.0142  -49.5072  -57.2692 C.3       8 UNK        -0.1977 
     32 N          25.3412  -48.8514  -57.6678 N.am      8 UNK        -0.4342 
     33 C          26.4333  -49.0958  -56.9394 C.2       8 UNK         0.5039 
     34 O          26.4531  -49.0942  -55.7056 O.2       8 UNK        -0.5547 
     35 CA         27.7195  -49.3395  -57.7416 C.3       7 UNK         0.0281 
     36 CB         28.2265  -48.0219  -58.3586 C.3       7 UNK        -0.1963 
     37 N          28.7704  -49.8786  -56.8821 N.am      7 UNK        -0.4444 
     38 C          29.1036  -51.1722  -56.7790 C.2       7 UNK         0.5104 
     39 O          28.5342  -52.0701  -57.4031 O.2       7 UNK        -0.5100 
     40 CA         30.2725  -51.5270  -55.8295 C.3       6 UNK         0.0396 
     41 CB         31.0262  -52.8033  -56.2574 C.3       6 UNK        -0.1801 
     42 N          31.2066  -50.4152  -55.6129 N.am      6 UNK        -0.4747 
     43 C          31.9182  -49.7523  -56.5415 C.2       6 UNK         0.5012 
     44 O          32.0166  -50.1330  -57.7095 O.2       6 UNK        -0.5003 
     45 CA         32.6071  -48.4297  -56.1147 C.3       5 UNK         0.0782 
     46 C46        32.6343  -47.3887  -57.2676 C.3       11 UNK        -0.0868 
     47 S47        33.7593  -45.9965  -56.9147 S.3       11 UNK        -0.2515 
     48 C48        32.7133  -44.5542  -57.2921 C.3       11 UNK         0.0199 
     49 N          32.0854  -47.8662  -54.8606 N.am      5 UNK        -0.4607 
     50 C          30.8185  -47.5356  -54.5727 C.2       4 UNK         0.5031 
     51 O          29.8855  -47.6342  -55.3708 O.2       4 UNK        -0.5119 
     52 CA         30.5532  -47.1187  -53.1128 C.3       4 UNK         0.0263 
     53 CB         29.0514  -47.0578  -52.7627 C.3       4 UNK        -0.1967 
     54 N          31.2735  -47.9723  -52.1567 N.am      4 UNK        -0.4237 
     55 C          31.1682  -49.3052  -52.0249 C.2       3 UNK         0.4908 
     56 O          30.3777  -50.0013  -52.6641 O.2       3 UNK        -0.5102 
     57 CA         32.1599  -49.9656  -51.0461 C.3       3 UNK         0.0241 
     58 CB         32.0627  -51.5069  -51.0367 C.3       3 UNK        -0.1971 
     59 N          33.5429  -49.5310  -51.2877 N.am      3 UNK        -0.4139 
     60 C          34.2459  -49.6578  -52.4256 C.2       2 UNK         0.5016 
     61 O          33.8373  -50.2398  -53.4317 O.2       2 UNK        -0.5319 
     62 CA         35.6256  -48.9685  -52.4431 C.3       2 UNK         0.0286 
     63 CB         36.2360  -48.8877  -53.8592 C.3       2 UNK        -0.1963 
     64 N          35.6105  -47.6351  -51.8219 N.am      2 UNK        -0.4790 
     65 C          34.8393  -46.5883  -52.1547 C.2       1 UNK         0.5024 
     66 O          33.9769  -46.6373  -53.0319 O.2       1 UNK        -0.4888 
     67 H67        34.1928  -45.6925  -47.4459 H         1 UNK         0.0892 
     68 H68        35.0710  -47.2147  -47.2824 H         1 UNK         0.0892 
     69 H69        35.8845  -45.6846  -46.9442 H         1 UNK         0.0892 
     70 H70        33.9347  -45.0938  -49.5888 H         1 UNK         0.3107 
     71 H71        36.1216  -45.0551  -51.4663 H         1 UNK         0.0773 
     72 H72        34.7321  -43.1505  -51.5055 H         1 UNK         0.0680 
     73 H73        34.4146  -43.9952  -52.9863 H         1 UNK         0.0680 
     74 H74        32.7007  -42.0242  -52.8538 H         1 UNK         0.0650 
     75 H75        31.1180  -42.1711  -52.1404 H         1 UNK         0.0650 
     76 H76        33.2991  -43.4725  -54.8771 H         1 UNK         0.1397 
     77 H77        30.0013  -44.9116  -57.2009 H         1 UNK         0.1363 
     78 H78        29.3246  -43.3262  -53.2745 H         1 UNK         0.1355 
     79 H79        27.5309  -44.3910  -54.4203 H         1 UNK         0.0707 
     80 H80        27.8337  -45.3934  -55.8098 H         1 UNK         0.0707 
     81 H81        28.2134  -43.2685  -58.5847 H         1 UNK         0.1034 
     82 H82        27.7203  -44.8488  -58.0420 H         1 UNK         0.1034 
     83 H83        25.9006  -42.6543  -59.1160 H         1 UNK         0.0482 
     84 H84        25.0866  -45.8909  -60.1639 H         1 UNK         0.3460 
     85 H85        25.9200  -45.7760  -61.6964 H         1 UNK         0.3460 
     86 H86        25.1276  -44.9172  -57.5186 H         1 UNK         0.2989 
     87 H87        22.2859  -44.2723  -57.0290 H         1 UNK         0.0559 
     88 H88        20.8743  -44.1899  -59.0551 H         1 UNK         0.0848 
     89 H89        21.5603  -45.6970  -59.6439 H         1 UNK         0.0848 
     90 H90        20.5649  -45.6832  -58.1889 H         1 UNK         0.0848 
     91 H91        22.9179  -46.2719  -56.3179 H         1 UNK         0.3144 
     92 H92        24.1537  -48.0927  -56.0983 H         1 UNK         0.0727 
     93 H93        23.3091  -50.3867  -56.6966 H         1 UNK         0.0790 
     94 H94        22.8716  -49.8155  -58.3060 H         1 UNK         0.0790 
     95 H95        22.0455  -49.1810  -56.8884 H         1 UNK         0.0790 
     96 H96        25.4178  -48.7996  -58.6762 H         1 UNK         0.3215 
     97 H97        27.4989  -50.0424  -58.5480 H         1 UNK         0.0863 
     98 H98        27.5036  -47.6048  -59.0609 H         1 UNK         0.0808 
     99 H99        28.4128  -47.2662  -57.5947 H         1 UNK         0.0808 
    100 H100       29.1566  -48.1749  -58.9065 H         1 UNK         0.0808 
    101 H101       29.2321  -49.2012  -56.2783 H         1 UNK         0.3118 
    102 H102       29.8179  -51.7245  -54.8579 H         1 UNK         0.0546 
    103 H103       30.3602  -53.6668  -56.2648 H         1 UNK         0.0828 
    104 H104       31.8414  -53.0309  -55.5706 H         1 UNK         0.0828 
    105 H105       31.4461  -52.7101  -57.2592 H         1 UNK         0.0828 
    106 H106       31.1966  -50.0354  -54.6719 H         1 UNK         0.3005 
    107 H107       33.6378  -48.7163  -55.9019 H         1 UNK         0.1257 
    108 H108       31.6272  -47.0211  -57.4708 H         1 UNK         0.0775 
    109 H109       32.9857  -47.8380  -58.1980 H         1 UNK         0.0775 
    110 H110       33.3593  -43.6928  -57.4675 H         1 UNK         0.0840 
    111 H111       32.1769  -44.7227  -58.2272 H         1 UNK         0.0840 
    112 H112       32.7857  -47.6909  -54.1453 H         1 UNK         0.2987 
    113 H113       30.9647  -46.1152  -53.0063 H         1 UNK         0.0785 
    114 H114       28.5302  -46.3517  -53.4066 H         1 UNK         0.0798 
    115 H115       28.8963  -46.7339  -51.7339 H         1 UNK         0.0798 
    116 H116       28.5648  -48.0253  -52.8906 H         1 UNK         0.0798 
    117 H117       31.9953  -47.5021  -51.6291 H         1 UNK         0.3079 
    118 H118       31.8891  -49.6126  -50.0498 H         1 UNK         0.0794 
    119 H119       31.0600  -51.8323  -50.7567 H         1 UNK         0.0786 
    120 H120       32.7571  -51.9440  -50.3194 H         1 UNK         0.0786 
    121 H121       32.2794  -51.9343  -52.0165 H         1 UNK         0.0786 
    122 H122       33.9817  -49.0266  -50.5300 H         1 UNK         0.3032 
    123 H123       36.2821  -49.5934  -51.8352 H         1 UNK         0.1094 
    124 H124       37.2355  -48.4538  -53.8341 H         1 UNK         0.0794 
    125 H125       36.3266  -49.8784  -54.3065 H         1 UNK         0.0794 
    126 H126       35.6267  -48.2810  -54.5296 H         1 UNK         0.0794 
    127 H127       36.2485  -47.4942  -51.0411 H         1 UNK         0.3016 
@<TRIPOS>BOND
     1    1    2 1    
     2    1   67 1    
     3    1   68 1    
     4    1   69 1    
     5    2    3 2    
     6    2    4 am   BACKBONE|DICT|INTERRES
     7    4    5 1    
     8    4   70 1    
     9    5    6 1    
    10    5   65 1    
    11    5   71 1    
    12    6    7 1    
    13    6   72 1    
    14    6   73 1    
    15    7    8 1    
    16    8    9 1    
    17    8   74 1    
    18    8   75 1    
    19    9   10 ar   
    20    9   14 ar   
    21   10   11 ar   
    22   10   76 1    
    23   11   12 ar   
    24   11   48 1    
    25   12   13 ar   
    26   12   77 1    
    27   13   14 ar   
    28   13   15 1    
    29   14   78 1    
    30   15   16 1    
    31   15   79 1    
    32   15   80 1    
    33   16   17 1    
    34   17   18 1    
    35   17   81 1    
    36   17   82 1    
    37   18   19 1    
    38   18   22 1    
    39   18   83 1    
    40   19   20 am   BACKBONE|DICT|INTERRES
    41   19   21 2    
    42   20   84 1    
    43   20   85 1    
    44   22   23 am   BACKBONE|DICT|INTERRES
    45   22   86 1    
    46   23   24 2    
    47   23   25 1    
    48   25   26 1    
    49   25   27 1    
    50   25   87 1    
    51   26   88 1    
    52   26   89 1    
    53   26   90 1    
    54   27   28 am   BACKBONE|DICT|INTERRES
    55   27   91 1    
    56   28   29 2    
    57   28   30 1    
    58   30   31 1    
    59   30   32 1    
    60   30   92 1    
    61   31   93 1    
    62   31   94 1    
    63   31   95 1    
    64   32   33 am   BACKBONE|DICT|INTERRES
    65   32   96 1    
    66   33   34 2    
    67   33   35 1    
    68   35   36 1    
    69   35   37 1    
    70   35   97 1    
    71   36   98 1    
    72   36   99 1    
    73   36  100 1    
    74   37   38 am   BACKBONE|DICT|INTERRES
    75   37  101 1    
    76   38   39 2    
    77   38   40 1    
    78   40   41 1    
    79   40   42 1    
    80   40  102 1    
    81   41  103 1    
    82   41  104 1    
    83   41  105 1    
    84   42   43 am   BACKBONE|DICT|INTERRES
    85   42  106 1    
    86   43   44 2    
    87   43   45 1    
    88   45   46 1    
    89   45   49 1    
    90   45  107 1    
    91   46   47 1    
    92   46  108 1    
    93   46  109 1    
    94   47   48 1    
    95   48  110 1    
    96   48  111 1    
    97   49   50 am   BACKBONE|DICT|INTERRES
    98   49  112 1    
    99   50   51 2    
   100   50   52 1    
   101   52   53 1    
   102   52   54 1    
   103   52  113 1    
   104   53  114 1    
   105   53  115 1    
   106   53  116 1    
   107   54   55 am   BACKBONE|DICT|INTERRES
   108   54  117 1    
   109   55   56 2    
   110   55   57 1    
   111   57   58 1    
   112   57   59 1    
   113   57  118 1    
   114   58  119 1    
   115   58  120 1    
   116   58  121 1    
   117   59   60 am   BACKBONE|DICT|INTERRES
   118   59  122 1    
   119   60   61 2    
   120   60   62 1    
   121   62   63 1    
   122   62   64 1    
   123   62  123 1    
   124   63  124 1    
   125   63  125 1    
   126   63  126 1    
   127   64   65 am   BACKBONE|DICT|INTERRES
   128   64  127 1    
   129   65   66 2    
@<TRIPOS>SUBSTRUCTURE
     1 UNK         1 GROUP             0       ****    0 ROOT    
