@<TRIPOS>MOLECULE
3R134
127   129    1
SMALL
USER_CHARGES


@<TRIPOS>ATOM
      1 CA         35.4137  -47.4669  -58.0395 C.3       0 UNK        -0.1968 
      2 C          34.8337  -47.3072  -56.6426 C.2       0 UNK         0.4852 
      3 O          34.2999  -48.2702  -56.0904 O.2       0 UNK        -0.5359 
      4 N          34.9320  -46.1012  -56.0663 N.am      1 UNK        -0.4300 
      5 CA         34.4409  -45.7832  -54.7225 C.3       1 UNK         0.0863 
      6 C6         34.4798  -44.2623  -54.4206 C.3       11 UNK        -0.0953 
      7 S7         33.5047  -43.2017  -55.5508 S.3       11 UNK        -0.2369 
      8 C8         31.9170  -44.0718  -55.7929 C.3       11 UNK         0.0226 
      9 C9         30.9511  -43.9270  -54.6185 C.ar      11 UNK        -0.0699 
     10 C10        31.2109  -44.5381  -53.3872 C.ar      11 UNK        -0.0804 
     11 C11        30.3042  -44.4416  -52.3285 C.ar      11 UNK        -0.0871 
     12 C12        29.1090  -43.7420  -52.5151 C.ar      11 UNK        -0.1008 
     13 C13        28.8311  -43.1270  -53.7400 C.ar      11 UNK        -0.0735 
     14 C14        29.7580  -43.2160  -54.7826 C.ar      11 UNK        -0.0945 
     15 C15        27.5346  -42.3554  -53.9279 C.3       11 UNK         0.0169 
     16 S16        26.2734  -43.3684  -54.7595 S.3       11 UNK        -0.2669 
     17 C17        26.3641  -42.7504  -56.4743 C.3       11 UNK        -0.0850 
     18 CA         25.9677  -43.8268  -57.5283 C.3       10 UNK         0.0855 
     19 C          25.7048  -43.2135  -58.9398 C.2       10 UNK         0.5543 
     20 N          26.0408  -43.8811  -60.0379 N.am      10 UNK        -0.7343 
     21 O          25.1503  -42.1223  -59.0480 O.2       10 UNK        -0.5027 
     22 N          26.8521  -45.0059  -57.5279 N.am      10 UNK        -0.4495 
     23 C          28.1559  -45.0139  -57.8417 C.2       10 UNK         0.4903 
     24 O          28.8172  -44.0028  -58.0776 O.2       10 UNK        -0.4860 
     25 CA         28.8416  -46.3870  -57.9540 C.3       9 UNK         0.0227 
     26 CB         29.3804  -46.8350  -56.5903 C.3       9 UNK        -0.1964 
     27 N          27.9899  -47.4540  -58.4797 N.am      9 UNK        -0.4231 
     28 C          27.3163  -47.4722  -59.6349 C.2       9 UNK         0.5014 
     29 O          27.3221  -46.5474  -60.4479 O.2       9 UNK        -0.5270 
     30 CA         26.4642  -48.7251  -59.9204 C.3       8 UNK         0.0284 
     31 CB         27.3266  -49.8631  -60.5010 C.3       8 UNK        -0.1977 
     32 N          25.6592  -49.1821  -58.7741 N.am      8 UNK        -0.4342 
     33 C          26.0746  -49.6604  -57.5921 C.2       8 UNK         0.5039 
     34 O          27.2569  -49.8495  -57.2954 O.2       8 UNK        -0.5547 
     35 CA         24.9906  -49.8992  -56.5314 C.3       7 UNK         0.0281 
     36 CB         24.9896  -51.3641  -56.0649 C.3       7 UNK        -0.1963 
     37 N          25.1923  -49.0242  -55.3753 N.am      7 UNK        -0.4444 
     38 C          25.1480  -47.6857  -55.3893 C.2       7 UNK         0.5104 
     39 O          24.9295  -47.0154  -56.3995 O.2       7 UNK        -0.5100 
     40 CA         25.3983  -46.9685  -54.0509 C.3       6 UNK         0.0396 
     41 CB         24.4786  -47.4813  -52.9225 C.3       6 UNK        -0.1801 
     42 N          26.8121  -46.9696  -53.6516 N.am      6 UNK        -0.4747 
     43 C          27.5670  -48.0300  -53.3292 C.2       6 UNK         0.5012 
     44 O          27.1427  -49.1887  -53.2738 O.2       6 UNK        -0.5003 
     45 CA         29.0421  -47.7561  -52.9979 C.3       5 UNK         0.0782 
     46 C46        29.2123  -47.4509  -51.4873 C.3       11 UNK        -0.0868 
     47 S47        30.8856  -46.8660  -51.0607 S.3       11 UNK        -0.2515 
     48 C48        30.6346  -45.0625  -50.9751 C.3       11 UNK         0.0199 
     49 N          29.7860  -48.9352  -53.4388 N.am      5 UNK        -0.4607 
     50 C          30.9972  -48.9322  -53.9987 C.2       4 UNK         0.5031 
     51 O          31.6946  -47.9245  -54.1298 O.2       4 UNK        -0.5119 
     52 CA         31.4976  -50.2790  -54.5348 C.3       4 UNK         0.0263 
     53 CB         31.0894  -50.4655  -56.0057 C.3       4 UNK        -0.1967 
     54 N          32.9513  -50.3006  -54.4294 N.am      4 UNK        -0.4237 
     55 C          33.6853  -51.3013  -53.9279 C.2       3 UNK         0.4908 
     56 O          33.2369  -52.4138  -53.6481 O.2       3 UNK        -0.5102 
     57 CA         35.1628  -50.9866  -53.6325 C.3       3 UNK         0.0241 
     58 CB         36.0295  -51.1185  -54.8952 C.3       3 UNK        -0.1971 
     59 N          35.3061  -49.6461  -53.0580 N.am      3 UNK        -0.4139 
     60 C          34.9357  -49.3196  -51.8109 C.2       2 UNK         0.5016 
     61 O          34.6252  -50.1509  -50.9567 O.2       2 UNK        -0.5319 
     62 CA         34.8336  -47.8257  -51.4548 C.3       2 UNK         0.0286 
     63 CB         36.0985  -47.3194  -50.7331 C.3       2 UNK        -0.1963 
     64 N          34.4475  -46.9736  -52.5896 N.am      2 UNK        -0.4790 
     65 C          35.1877  -46.5798  -53.6354 C.2       1 UNK         0.5024 
     66 O          36.3844  -46.8403  -53.7745 O.2       1 UNK        -0.4888 
     67 H67        35.8467  -46.5382  -58.4105 H         1 UNK         0.0892 
     68 H68        36.1932  -48.2283  -58.0352 H         1 UNK         0.0892 
     69 H69        34.6345  -47.7801  -58.7338 H         1 UNK         0.0892 
     70 H70        35.3958  -45.3479  -56.5529 H         1 UNK         0.3107 
     71 H71        33.4112  -46.1290  -54.6881 H         1 UNK         0.0773 
     72 H72        34.1362  -44.0597  -53.4049 H         1 UNK         0.0680 
     73 H73        35.5114  -43.9064  -54.4520 H         1 UNK         0.0680 
     74 H74        32.0754  -45.1219  -56.0307 H         1 UNK         0.0650 
     75 H75        31.4597  -43.6531  -56.6908 H         1 UNK         0.0650 
     76 H76        32.1155  -45.1016  -53.2385 H         1 UNK         0.1397 
     77 H77        28.3986  -43.6632  -51.7033 H         1 UNK         0.1363 
     78 H78        29.5398  -42.7450  -55.7309 H         1 UNK         0.1355 
     79 H79        27.1424  -42.0431  -52.9588 H         1 UNK         0.0707 
     80 H80        27.7179  -41.4358  -54.4855 H         1 UNK         0.0707 
     81 H81        25.6930  -41.8915  -56.5302 H         1 UNK         0.1034 
     82 H82        27.3601  -42.3600  -56.6830 H         1 UNK         0.1034 
     83 H83        24.9934  -44.2154  -57.2297 H         1 UNK         0.0482 
     84 H84        26.5016  -44.7834  -59.9883 H         1 UNK         0.3460 
     85 H85        25.8492  -43.4698  -60.9372 H         1 UNK         0.3460 
     86 H86        26.3839  -45.8848  -57.3371 H         1 UNK         0.2989 
     87 H87        29.6850  -46.2737  -58.6377 H         1 UNK         0.0559 
     88 H88        28.5713  -47.1514  -55.9348 H         1 UNK         0.0848 
     89 H89        30.0742  -47.6683  -56.6941 H         1 UNK         0.0848 
     90 H90        29.9126  -46.0329  -56.0846 H         1 UNK         0.0848 
     91 H91        27.8954  -48.2913  -57.9044 H         1 UNK         0.3144 
     92 H92        25.7436  -48.4400  -60.6888 H         1 UNK         0.0727 
     93 H93        26.7160  -50.7254  -60.7688 H         1 UNK         0.0790 
     94 H94        28.0909  -50.1990  -59.7996 H         1 UNK         0.0790 
     95 H95        27.8408  -49.5365  -61.4059 H         1 UNK         0.0790 
     96 H96        24.6660  -49.0212  -58.8766 H         1 UNK         0.3215 
     97 H97        24.0108  -49.6733  -56.9573 H         1 UNK         0.0863 
     98 H98        24.1913  -51.5521  -55.3467 H         1 UNK         0.0808 
     99 H99        25.9354  -51.6383  -55.5952 H         1 UNK         0.0808 
    100 H100       24.8351  -52.0412  -56.9061 H         1 UNK         0.0808 
    101 H101       25.5284  -49.4595  -54.5235 H         1 UNK         0.3118 
    102 H102       25.1317  -45.9247  -54.2123 H         1 UNK         0.0546 
    103 H103       23.4312  -47.4239  -53.2215 H         1 UNK         0.0828 
    104 H104       24.5891  -46.8765  -52.0225 H         1 UNK         0.0828 
    105 H105       24.6790  -48.5174  -52.6506 H         1 UNK         0.0828 
    106 H106       27.2506  -46.0581  -53.6752 H         1 UNK         0.3005 
    107 H107       29.3661  -46.8897  -53.5788 H         1 UNK         0.1257 
    108 H108       29.0028  -48.3428  -50.8938 H         1 UNK         0.0775 
    109 H109       28.4915  -46.6988  -51.1601 H         1 UNK         0.0775 
    110 H110       29.8573  -44.8433  -50.2414 H         1 UNK         0.0840 
    111 H111       31.5475  -44.6024  -50.5942 H         1 UNK         0.0840 
    112 H112       29.2412  -49.7882  -53.4156 H         1 UNK         0.2987 
    113 H113       31.0609  -51.0777  -53.9312 H         1 UNK         0.0785 
    114 H114       30.0062  -50.4091  -56.1259 H         1 UNK         0.0798 
    115 H115       31.4088  -51.4370  -56.3827 H         1 UNK         0.0798 
    116 H116       31.5318  -49.6989  -56.6435 H         1 UNK         0.0798 
    117 H117       33.4022  -49.4231  -54.6790 H         1 UNK         0.3079 
    118 H118       35.5208  -51.7149  -52.9014 H         1 UNK         0.0794 
    119 H119       35.9587  -52.1249  -55.3097 H         1 UNK         0.0786 
    120 H120       37.0807  -50.9321  -54.6750 H         1 UNK         0.0786 
    121 H121       35.7233  -50.4242  -55.6773 H         1 UNK         0.0786 
    122 H122       35.5722  -48.8979  -53.6859 H         1 UNK         0.3032 
    123 H123       34.0071  -47.7441  -50.7461 H         1 UNK         0.1094 
    124 H124       36.0133  -46.2641  -50.4739 H         1 UNK         0.0794 
    125 H125       36.2566  -47.8694  -49.8046 H         1 UNK         0.0794 
    126 H126       36.9977  -47.4483  -51.3357 H         1 UNK         0.0794 
    127 H127       33.4552  -46.7761  -52.6285 H         1 UNK         0.3016 
@<TRIPOS>BOND
     1    1    2 1    
     2    1   67 1    
     3    1   68 1    
     4    1   69 1    
     5    2    3 2    
     6    2    4 am   BACKBONE|DICT|INTERRES
     7    4    5 1    
     8    4   70 1    
     9    5    6 1    
    10    5   65 1    
    11    5   71 1    
    12    6    7 1    
    13    6   72 1    
    14    6   73 1    
    15    7    8 1    
    16    8    9 1    
    17    8   74 1    
    18    8   75 1    
    19    9   10 ar   
    20    9   14 ar   
    21   10   11 ar   
    22   10   76 1    
    23   11   12 ar   
    24   11   48 1    
    25   12   13 ar   
    26   12   77 1    
    27   13   14 ar   
    28   13   15 1    
    29   14   78 1    
    30   15   16 1    
    31   15   79 1    
    32   15   80 1    
    33   16   17 1    
    34   17   18 1    
    35   17   81 1    
    36   17   82 1    
    37   18   19 1    
    38   18   22 1    
    39   18   83 1    
    40   19   20 am   BACKBONE|DICT|INTERRES
    41   19   21 2    
    42   20   84 1    
    43   20   85 1    
    44   22   23 am   BACKBONE|DICT|INTERRES
    45   22   86 1    
    46   23   24 2    
    47   23   25 1    
    48   25   26 1    
    49   25   27 1    
    50   25   87 1    
    51   26   88 1    
    52   26   89 1    
    53   26   90 1    
    54   27   28 am   BACKBONE|DICT|INTERRES
    55   27   91 1    
    56   28   29 2    
    57   28   30 1    
    58   30   31 1    
    59   30   32 1    
    60   30   92 1    
    61   31   93 1    
    62   31   94 1    
    63   31   95 1    
    64   32   33 am   BACKBONE|DICT|INTERRES
    65   32   96 1    
    66   33   34 2    
    67   33   35 1    
    68   35   36 1    
    69   35   37 1    
    70   35   97 1    
    71   36   98 1    
    72   36   99 1    
    73   36  100 1    
    74   37   38 am   BACKBONE|DICT|INTERRES
    75   37  101 1    
    76   38   39 2    
    77   38   40 1    
    78   40   41 1    
    79   40   42 1    
    80   40  102 1    
    81   41  103 1    
    82   41  104 1    
    83   41  105 1    
    84   42   43 am   BACKBONE|DICT|INTERRES
    85   42  106 1    
    86   43   44 2    
    87   43   45 1    
    88   45   46 1    
    89   45   49 1    
    90   45  107 1    
    91   46   47 1    
    92   46  108 1    
    93   46  109 1    
    94   47   48 1    
    95   48  110 1    
    96   48  111 1    
    97   49   50 am   BACKBONE|DICT|INTERRES
    98   49  112 1    
    99   50   51 2    
   100   50   52 1    
   101   52   53 1    
   102   52   54 1    
   103   52  113 1    
   104   53  114 1    
   105   53  115 1    
   106   53  116 1    
   107   54   55 am   BACKBONE|DICT|INTERRES
   108   54  117 1    
   109   55   56 2    
   110   55   57 1    
   111   57   58 1    
   112   57   59 1    
   113   57  118 1    
   114   58  119 1    
   115   58  120 1    
   116   58  121 1    
   117   59   60 am   BACKBONE|DICT|INTERRES
   118   59  122 1    
   119   60   61 2    
   120   60   62 1    
   121   62   63 1    
   122   62   64 1    
   123   62  123 1    
   124   63  124 1    
   125   63  125 1    
   126   63  126 1    
   127   64   65 am   BACKBONE|DICT|INTERRES
   128   64  127 1    
   129   65   66 2    
@<TRIPOS>SUBSTRUCTURE
     1 UNK         1 GROUP             0       ****    0 ROOT    
