@<TRIPOS>MOLECULE
3R134
127   129    1
SMALL
USER_CHARGES


@<TRIPOS>ATOM
      1 CA         33.9771  -47.4804  -57.5347 C.3       0 UNK        -0.1968 
      2 C          33.7501  -47.1577  -56.0654 C.2       0 UNK         0.4852 
      3 O          32.9723  -47.8387  -55.3946 O.2       0 UNK        -0.5359 
      4 N          34.4382  -46.1338  -55.5454 N.am      1 UNK        -0.4300 
      5 CA         34.4466  -45.8009  -54.1197 C.3       1 UNK         0.0863 
      6 C6         35.1316  -44.4391  -53.8551 C.3       11 UNK        -0.0953 
      7 S7         34.5766  -43.6947  -52.2857 S.3       11 UNK        -0.2369 
      8 C8         33.6031  -42.2716  -52.8684 C.3       11 UNK         0.0226 
      9 C9         32.2450  -42.6807  -53.4230 C.ar      11 UNK        -0.0699 
     10 C10        31.1652  -42.8725  -52.5528 C.ar      11 UNK        -0.0804 
     11 C11        29.8958  -43.1745  -53.0545 C.ar      11 UNK        -0.0871 
     12 C12        29.7188  -43.2851  -54.4340 C.ar      11 UNK        -0.1008 
     13 C13        30.7911  -43.1385  -55.3144 C.ar      11 UNK        -0.0735 
     14 C14        32.0551  -42.8277  -54.8029 C.ar      11 UNK        -0.0945 
     15 C15        30.5722  -43.3430  -56.8080 C.3       11 UNK         0.0169 
     16 S16        29.3710  -42.1539  -57.4926 S.3       11 UNK        -0.2669 
     17 C17        28.2259  -43.2507  -58.4069 C.3       11 UNK        -0.0850 
     18 CA         27.1507  -43.9243  -57.5012 C.3       10 UNK         0.0855 
     19 C          25.9508  -43.0016  -57.1153 C.2       10 UNK         0.5543 
     20 N          24.7665  -43.5450  -56.8564 N.am      10 UNK        -0.7343 
     21 O          26.0887  -41.7850  -57.0231 O.2       10 UNK        -0.5027 
     22 N          26.7612  -45.2562  -57.9888 N.am      10 UNK        -0.4495 
     23 C          26.0868  -45.5177  -59.1184 C.2       10 UNK         0.4903 
     24 O          25.7772  -44.6579  -59.9435 O.2       10 UNK        -0.4860 
     25 CA         25.6741  -46.9788  -59.3809 C.3       9 UNK         0.0227 
     26 CB         26.5147  -47.5745  -60.5218 C.3       9 UNK        -0.1964 
     27 N          25.7656  -47.8313  -58.1874 N.am      9 UNK        -0.4231 
     28 C          24.8792  -47.8009  -57.1779 C.2       9 UNK         0.5014 
     29 O          23.8778  -47.0825  -57.1929 O.2       9 UNK        -0.5270 
     30 CA         25.1560  -48.6425  -55.9149 C.3       8 UNK         0.0284 
     31 CB         23.9100  -49.4153  -55.4318 C.3       8 UNK        -0.1977 
     32 N          26.3449  -49.4985  -55.9980 N.am      8 UNK        -0.4342 
     33 C          26.5127  -50.6584  -56.6505 C.2       8 UNK         0.5039 
     34 O          25.6197  -51.2443  -57.2640 O.2       8 UNK        -0.5547 
     35 CA         27.9470  -51.2383  -56.6259 C.3       7 UNK         0.0281 
     36 CB         28.1988  -52.2532  -57.7610 C.3       7 UNK        -0.1963 
     37 N          28.9918  -50.2010  -56.6224 N.am      7 UNK        -0.4444 
     38 C          29.1349  -49.2186  -57.5243 C.2       7 UNK         0.5104 
     39 O          28.4136  -49.0965  -58.5132 O.2       7 UNK        -0.5100 
     40 CA         30.2001  -48.1524  -57.2169 C.3       6 UNK         0.0396 
     41 CB         30.1972  -46.9992  -58.2420 C.3       6 UNK        -0.1801 
     42 N          30.0924  -47.6304  -55.8472 N.am      6 UNK        -0.4747 
     43 C          29.0210  -47.0588  -55.2721 C.2       6 UNK         0.5012 
     44 O          27.9500  -46.8741  -55.8534 O.2       6 UNK        -0.5003 
     45 CA         29.1452  -46.7326  -53.7737 C.3       5 UNK         0.0782 
     46 C46        27.9757  -45.8739  -53.2241 C.3       11 UNK        -0.0868 
     47 S47        28.4414  -45.0914  -51.6410 S.3       11 UNK        -0.2515 
     48 C48        28.7042  -43.3509  -52.1212 C.3       11 UNK         0.0199 
     49 N          29.2086  -48.0159  -53.0800 N.am      5 UNK        -0.4607 
     50 C          30.2722  -48.5002  -52.4390 C.2       4 UNK         0.5031 
     51 O          31.3114  -47.8635  -52.2482 O.2       4 UNK        -0.5119 
     52 CA         30.1880  -49.9674  -51.9653 C.3       4 UNK         0.0263 
     53 CB         28.8792  -50.7037  -52.3412 C.3       4 UNK        -0.1967 
     54 N          31.3642  -50.6978  -52.4433 N.am      4 UNK        -0.4237 
     55 C          31.7466  -50.8391  -53.7228 C.2       3 UNK         0.4908 
     56 O          31.0077  -50.6519  -54.6925 O.2       3 UNK        -0.5102 
     57 CA         33.2465  -51.1072  -53.9237 C.3       3 UNK         0.0241 
     58 CB         33.6387  -51.2540  -55.4057 C.3       3 UNK        -0.1971 
     59 N          33.9525  -49.9649  -53.3358 N.am      3 UNK        -0.4139 
     60 C          34.4828  -49.9508  -52.1034 C.2       2 UNK         0.5016 
     61 O          34.6564  -50.9712  -51.4357 O.2       2 UNK        -0.5319 
     62 CA         34.7667  -48.5854  -51.4455 C.3       2 UNK         0.0286 
     63 CB         36.1897  -48.4978  -50.8529 C.3       2 UNK        -0.1963 
     64 N          34.4287  -47.4284  -52.2860 N.am      2 UNK        -0.4790 
     65 C          35.1163  -46.9439  -53.3279 C.2       1 UNK         0.5024 
     66 O          36.2097  -47.3746  -53.7013 O.2       1 UNK        -0.4888 
     67 H67        34.0885  -48.5558  -57.6693 H         1 UNK         0.0892 
     68 H68        33.1332  -47.1481  -58.1352 H         1 UNK         0.0892 
     69 H69        34.8768  -47.0001  -57.9185 H         1 UNK         0.0892 
     70 H70        35.0902  -45.6244  -56.1239 H         1 UNK         0.3107 
     71 H71        33.3994  -45.7245  -53.8146 H         1 UNK         0.0773 
     72 H72        34.9127  -43.7432  -54.6654 H         1 UNK         0.0680 
     73 H73        36.2194  -44.5324  -53.8399 H         1 UNK         0.0680 
     74 H74        33.4587  -41.5871  -52.0312 H         1 UNK         0.0650 
     75 H75        34.1732  -41.7145  -53.6135 H         1 UNK         0.0650 
     76 H76        31.3107  -42.7678  -51.4862 H         1 UNK         0.1397 
     77 H77        28.7368  -43.4806  -54.8299 H         1 UNK         0.1363 
     78 H78        32.8880  -42.6908  -55.4784 H         1 UNK         0.1355 
     79 H79        30.2129  -44.3606  -56.9567 H         1 UNK         0.0707 
     80 H80        31.5102  -43.2602  -57.3591 H         1 UNK         0.0707 
     81 H81        28.8255  -44.0066  -58.9160 H         1 UNK         0.1034 
     82 H82        27.7476  -42.6789  -59.2042 H         1 UNK         0.1034 
     83 H83        27.6266  -44.1525  -56.5511 H         1 UNK         0.0482 
     84 H84        23.9957  -42.9484  -56.6008 H         1 UNK         0.3460 
     85 H85        24.6304  -44.5417  -56.9333 H         1 UNK         0.3460 
     86 H86        26.9857  -46.0227  -57.3614 H         1 UNK         0.2989 
     87 H87        24.6328  -46.9698  -59.7098 H         1 UNK         0.0559 
     88 H88        26.2907  -48.6298  -60.6778 H         1 UNK         0.0848 
     89 H89        27.5838  -47.4806  -60.3298 H         1 UNK         0.0848 
     90 H90        26.3131  -47.0571  -61.4605 H         1 UNK         0.0848 
     91 H91        26.5908  -48.4205  -58.1172 H         1 UNK         0.3144 
     92 H92        25.3927  -47.9131  -55.1388 H         1 UNK         0.0727 
     93 H93        24.1233  -49.9935  -54.5329 H         1 UNK         0.0790 
     94 H94        23.5342  -50.0994  -56.1928 H         1 UNK         0.0790 
     95 H95        23.0969  -48.7300  -55.1891 H         1 UNK         0.0790 
     96 H96        27.1784  -49.0798  -55.6097 H         1 UNK         0.3215 
     97 H97        28.0423  -51.7727  -55.6795 H         1 UNK         0.0863 
     98 H98        29.2092  -52.6590  -57.7122 H         1 UNK         0.0808 
     99 H99        28.0652  -51.8012  -58.7444 H         1 UNK         0.0808 
    100 H100       27.5090  -53.0953  -57.6940 H         1 UNK         0.0808 
    101 H101       29.6728  -50.2536  -55.8629 H         1 UNK         0.3118 
    102 H102       31.1630  -48.6596  -57.2838 H         1 UNK         0.0546 
    103 H103       29.2452  -46.4707  -58.2546 H         1 UNK         0.0828 
    104 H104       30.3718  -47.3741  -59.2511 H         1 UNK         0.0828 
    105 H105       30.9799  -46.2741  -58.0278 H         1 UNK         0.0828 
    106 H106       30.9310  -47.7730  -55.2894 H         1 UNK         0.3005 
    107 H107       30.0777  -46.1738  -53.6565 H         1 UNK         0.1257 
    108 H108       27.6567  -45.1074  -53.9280 H         1 UNK         0.0775 
    109 H109       27.0890  -46.4890  -53.0599 H         1 UNK         0.0775 
    110 H110       27.7975  -42.9617  -52.5874 H         1 UNK         0.0840 
    111 H111       28.8529  -42.7586  -51.2170 H         1 UNK         0.0840 
    112 H112       28.4059  -48.6169  -53.1875 H         1 UNK         0.2987 
    113 H113       30.2562  -49.9416  -50.8768 H         1 UNK         0.0785 
    114 H114       28.8993  -51.7337  -51.9851 H         1 UNK         0.0798 
    115 H115       28.7100  -50.7363  -53.4174 H         1 UNK         0.0798 
    116 H116       28.0122  -50.2288  -51.8802 H         1 UNK         0.0798 
    117 H117       32.0666  -50.8754  -51.7383 H         1 UNK         0.3079 
    118 H118       33.4991  -52.0367  -53.4094 H         1 UNK         0.0794 
    119 H119       33.1418  -52.1152  -55.8538 H         1 UNK         0.0786 
    120 H120       34.7127  -51.4019  -55.5175 H         1 UNK         0.0786 
    121 H121       33.3590  -50.3786  -55.9913 H         1 UNK         0.0786 
    122 H122       33.7848  -49.0764  -53.7965 H         1 UNK         0.3032 
    123 H123       34.0722  -48.5289  -50.6054 H         1 UNK         0.1094 
    124 H124       36.3306  -49.2482  -50.0740 H         1 UNK         0.0794 
    125 H125       36.9597  -48.6730  -51.6043 H         1 UNK         0.0794 
    126 H126       36.3738  -47.5238  -50.3997 H         1 UNK         0.0794 
    127 H127       33.5062  -47.0439  -52.1129 H         1 UNK         0.3016 
@<TRIPOS>BOND
     1    1    2 1    
     2    1   67 1    
     3    1   68 1    
     4    1   69 1    
     5    2    3 2    
     6    2    4 am   BACKBONE|DICT|INTERRES
     7    4    5 1    
     8    4   70 1    
     9    5    6 1    
    10    5   65 1    
    11    5   71 1    
    12    6    7 1    
    13    6   72 1    
    14    6   73 1    
    15    7    8 1    
    16    8    9 1    
    17    8   74 1    
    18    8   75 1    
    19    9   10 ar   
    20    9   14 ar   
    21   10   11 ar   
    22   10   76 1    
    23   11   12 ar   
    24   11   48 1    
    25   12   13 ar   
    26   12   77 1    
    27   13   14 ar   
    28   13   15 1    
    29   14   78 1    
    30   15   16 1    
    31   15   79 1    
    32   15   80 1    
    33   16   17 1    
    34   17   18 1    
    35   17   81 1    
    36   17   82 1    
    37   18   19 1    
    38   18   22 1    
    39   18   83 1    
    40   19   20 am   BACKBONE|DICT|INTERRES
    41   19   21 2    
    42   20   84 1    
    43   20   85 1    
    44   22   23 am   BACKBONE|DICT|INTERRES
    45   22   86 1    
    46   23   24 2    
    47   23   25 1    
    48   25   26 1    
    49   25   27 1    
    50   25   87 1    
    51   26   88 1    
    52   26   89 1    
    53   26   90 1    
    54   27   28 am   BACKBONE|DICT|INTERRES
    55   27   91 1    
    56   28   29 2    
    57   28   30 1    
    58   30   31 1    
    59   30   32 1    
    60   30   92 1    
    61   31   93 1    
    62   31   94 1    
    63   31   95 1    
    64   32   33 am   BACKBONE|DICT|INTERRES
    65   32   96 1    
    66   33   34 2    
    67   33   35 1    
    68   35   36 1    
    69   35   37 1    
    70   35   97 1    
    71   36   98 1    
    72   36   99 1    
    73   36  100 1    
    74   37   38 am   BACKBONE|DICT|INTERRES
    75   37  101 1    
    76   38   39 2    
    77   38   40 1    
    78   40   41 1    
    79   40   42 1    
    80   40  102 1    
    81   41  103 1    
    82   41  104 1    
    83   41  105 1    
    84   42   43 am   BACKBONE|DICT|INTERRES
    85   42  106 1    
    86   43   44 2    
    87   43   45 1    
    88   45   46 1    
    89   45   49 1    
    90   45  107 1    
    91   46   47 1    
    92   46  108 1    
    93   46  109 1    
    94   47   48 1    
    95   48  110 1    
    96   48  111 1    
    97   49   50 am   BACKBONE|DICT|INTERRES
    98   49  112 1    
    99   50   51 2    
   100   50   52 1    
   101   52   53 1    
   102   52   54 1    
   103   52  113 1    
   104   53  114 1    
   105   53  115 1    
   106   53  116 1    
   107   54   55 am   BACKBONE|DICT|INTERRES
   108   54  117 1    
   109   55   56 2    
   110   55   57 1    
   111   57   58 1    
   112   57   59 1    
   113   57  118 1    
   114   58  119 1    
   115   58  120 1    
   116   58  121 1    
   117   59   60 am   BACKBONE|DICT|INTERRES
   118   59  122 1    
   119   60   61 2    
   120   60   62 1    
   121   62   63 1    
   122   62   64 1    
   123   62  123 1    
   124   63  124 1    
   125   63  125 1    
   126   63  126 1    
   127   64   65 am   BACKBONE|DICT|INTERRES
   128   64  127 1    
   129   65   66 2    
@<TRIPOS>SUBSTRUCTURE
     1 UNK         1 GROUP             0       ****    0 ROOT    
