@<TRIPOS>MOLECULE
3R134
127   129    1
SMALL
USER_CHARGES


@<TRIPOS>ATOM
      1 CA         29.9457  -44.2161  -51.7203 C.3       0 UNK        -0.1968 
      2 C          31.3007  -44.7400  -52.1712 C.2       0 UNK         0.4852 
      3 O          31.3842  -45.3775  -53.2183 O.2       0 UNK        -0.5359 
      4 N          32.3490  -44.4738  -51.3787 N.am      1 UNK        -0.4300 
      5 CA         33.7378  -44.9051  -51.5866 C.3       1 UNK         0.0863 
      6 C6         34.4127  -44.2833  -52.8434 C.3       11 UNK        -0.0953 
      7 S7         34.4381  -42.4607  -52.7633 S.3       11 UNK        -0.2369 
      8 C8         34.3071  -42.0004  -54.5204 C.3       11 UNK         0.0226 
      9 C9         32.9636  -42.3793  -55.1295 C.ar      11 UNK        -0.0699 
     10 C10        32.8994  -43.3173  -56.1629 C.ar      11 UNK        -0.0804 
     11 C11        31.6713  -43.6620  -56.7396 C.ar      11 UNK        -0.0871 
     12 C12        30.5062  -43.0405  -56.2781 C.ar      11 UNK        -0.1008 
     13 C13        30.5508  -42.0935  -55.2446 C.ar      11 UNK        -0.0735 
     14 C14        31.7884  -41.7722  -54.6796 C.ar      11 UNK        -0.0945 
     15 C15        29.3129  -41.3578  -54.7228 C.3       11 UNK         0.0169 
     16 S16        27.6979  -41.9416  -55.3424 S.3       11 UNK        -0.2669 
     17 C17        27.4856  -43.5053  -54.4171 C.3       11 UNK        -0.0850 
     18 CA         26.3128  -44.3706  -54.9511 C.3       10 UNK         0.0855 
     19 C          24.9267  -43.7536  -54.5939 C.2       10 UNK         0.5543 
     20 N          24.1119  -43.3387  -55.5563 N.am      10 UNK        -0.7343 
     21 O          24.5851  -43.6572  -53.4176 O.2       10 UNK        -0.5027 
     22 N          26.5228  -44.7183  -56.3652 N.am      10 UNK        -0.4495 
     23 C          25.8699  -45.6652  -57.0484 C.2       10 UNK         0.4903 
     24 O          24.9652  -46.3538  -56.5778 O.2       10 UNK        -0.4860 
     25 CA         26.2866  -45.8876  -58.5084 C.3       9 UNK         0.0227 
     26 CB         27.2629  -44.8315  -59.0700 C.3       9 UNK        -0.1964 
     27 N          26.9022  -47.2064  -58.5941 N.am      9 UNK        -0.4231 
     28 C          26.6246  -48.1379  -59.5116 C.2       9 UNK         0.5014 
     29 O          25.8234  -47.9819  -60.4349 O.2       9 UNK        -0.5270 
     30 CA         27.3782  -49.4727  -59.3905 C.3       8 UNK         0.0284 
     31 CB         28.7577  -49.3677  -60.0610 C.3       8 UNK        -0.1977 
     32 N          27.5343  -49.9375  -58.0080 N.am      8 UNK        -0.4342 
     33 C          26.5256  -50.3583  -57.2295 C.2       8 UNK         0.5039 
     34 O          25.3492  -50.3936  -57.5928 O.2       8 UNK        -0.5547 
     35 CA         26.8848  -50.8455  -55.8158 C.3       7 UNK         0.0281 
     36 CB         27.4778  -52.2633  -55.8627 C.3       7 UNK        -0.1963 
     37 N          27.8122  -49.9415  -55.1354 N.am      7 UNK        -0.4444 
     38 C          27.4645  -48.7662  -54.5923 C.2       7 UNK         0.5104 
     39 O          26.3035  -48.3700  -54.5061 O.2       7 UNK        -0.5100 
     40 CA         28.5998  -47.8741  -54.0557 C.3       6 UNK         0.0396 
     41 CB         28.8710  -48.1730  -52.5737 C.3       6 UNK        -0.1801 
     42 N          29.8461  -48.0059  -54.8107 N.am      6 UNK        -0.4747 
     43 C          29.9990  -47.6950  -56.1056 C.2       6 UNK         0.5012 
     44 O          29.1050  -47.2303  -56.8135 O.2       6 UNK        -0.5003 
     45 CA         31.3663  -48.0291  -56.7279 C.3       5 UNK         0.0782 
     46 C46        32.4203  -46.9272  -56.4284 C.3       11 UNK        -0.0868 
     47 S47        32.8461  -45.9653  -57.9152 S.3       11 UNK        -0.2515 
     48 C48        31.5685  -44.6601  -57.8936 C.3       11 UNK         0.0199 
     49 N          31.8151  -49.3609  -56.3108 N.am      5 UNK        -0.4607 
     50 C          31.2580  -50.5094  -56.7176 C.2       4 UNK         0.5031 
     51 O          30.3126  -50.5669  -57.5020 O.2       4 UNK        -0.5119 
     52 CA         31.8226  -51.8108  -56.1238 C.3       4 UNK         0.0263 
     53 CB         33.0625  -52.2683  -56.9079 C.3       4 UNK        -0.1967 
     54 N          32.1562  -51.6872  -54.7034 N.am      4 UNK        -0.4237 
     55 C          31.2530  -51.4923  -53.7320 C.2       3 UNK         0.4908 
     56 O          30.0386  -51.4581  -53.9244 O.2       3 UNK        -0.5102 
     57 CA         31.7960  -51.2462  -52.3136 C.3       3 UNK         0.0241 
     58 CB         32.0080  -52.5800  -51.5797 C.3       3 UNK        -0.1971 
     59 N          33.0331  -50.4556  -52.2677 N.am      3 UNK        -0.4139 
     60 C          33.1820  -49.2304  -52.7910 C.2       2 UNK         0.5016 
     61 O          32.3156  -48.6582  -53.4549 O.2       2 UNK        -0.5319 
     62 CA         34.5493  -48.5570  -52.5916 C.3       2 UNK         0.0286 
     63 CB         35.4922  -48.9118  -53.7531 C.3       2 UNK        -0.1963 
     64 N          34.4249  -47.0999  -52.5075 N.am      2 UNK        -0.4790 
     65 C          33.8462  -46.4438  -51.4913 C.2       1 UNK         0.5024 
     66 O          33.4300  -47.0054  -50.4747 O.2       1 UNK        -0.4888 
     67 H67        29.9373  -43.9742  -50.6577 H         1 UNK         0.0892 
     68 H68        29.6938  -43.3163  -52.2782 H         1 UNK         0.0892 
     69 H69        29.1722  -44.9616  -51.9028 H         1 UNK         0.0892 
     70 H70        32.1928  -43.9608  -50.5230 H         1 UNK         0.3107 
     71 H71        34.2881  -44.5366  -50.7194 H         1 UNK         0.0773 
     72 H72        33.9047  -44.6068  -53.7528 H         1 UNK         0.0680 
     73 H73        35.4498  -44.6120  -52.9298 H         1 UNK         0.0680 
     74 H74        35.1305  -42.4607  -55.0687 H         1 UNK         0.0650 
     75 H75        34.4440  -40.9220  -54.6106 H         1 UNK         0.0650 
     76 H76        33.8119  -43.7730  -56.5203 H         1 UNK         0.1397 
     77 H77        29.5663  -43.2942  -56.7444 H         1 UNK         0.1363 
     78 H78        31.8423  -41.0392  -53.8860 H         1 UNK         0.1355 
     79 H79        29.3000  -41.3871  -53.6327 H         1 UNK         0.0707 
     80 H80        29.4093  -40.3061  -54.9962 H         1 UNK         0.0707 
     81 H81        28.4130  -44.0782  -54.4756 H         1 UNK         0.1034 
     82 H82        27.3467  -43.2764  -53.3588 H         1 UNK         0.1034 
     83 H83        26.3459  -45.3148  -54.4043 H         1 UNK         0.0482 
     84 H84        23.2169  -42.9445  -55.3133 H         1 UNK         0.3460 
     85 H85        24.3871  -43.4151  -56.5218 H         1 UNK         0.3460 
     86 H86        27.2241  -44.1743  -56.8437 H         1 UNK         0.2989 
     87 H87        25.3694  -45.8557  -59.0999 H         1 UNK         0.0559 
     88 H88        26.8465  -43.8257  -58.9987 H         1 UNK         0.0848 
     89 H89        27.4657  -45.0155  -60.1252 H         1 UNK         0.0848 
     90 H90        28.2210  -44.8406  -58.5495 H         1 UNK         0.0848 
     91 H91        27.5914  -47.4139  -57.8725 H         1 UNK         0.3144 
     92 H92        26.7993  -50.2261  -59.9290 H         1 UNK         0.0727 
     93 H93        29.2656  -50.3322  -60.0761 H         1 UNK         0.0790 
     94 H94        29.4037  -48.6568  -59.5445 H         1 UNK         0.0790 
     95 H95        28.6660  -49.0346  -61.0957 H         1 UNK         0.0790 
     96 H96        28.4875  -50.0085  -57.6598 H         1 UNK         0.3215 
     97 H97        25.9606  -50.8898  -55.2352 H         1 UNK         0.0863 
     98 H98        27.6567  -52.6497  -54.8591 H         1 UNK         0.0808 
     99 H99        28.4239  -52.2913  -56.4037 H         1 UNK         0.0808 
    100 H100       26.7963  -52.9551  -56.3595 H         1 UNK         0.0808 
    101 H101       28.7783  -50.2406  -55.0610 H         1 UNK         0.3118 
    102 H102       28.2784  -46.8345  -54.1416 H         1 UNK         0.0546 
    103 H103       29.1652  -49.2116  -52.4219 H         1 UNK         0.0828 
    104 H104       27.9804  -47.9934  -51.9705 H         1 UNK         0.0828 
    105 H105       29.6669  -47.5405  -52.1799 H         1 UNK         0.0828 
    106 H106       30.6661  -48.3250  -54.2965 H         1 UNK         0.3005 
    107 H107       31.2040  -48.0846  -57.8069 H         1 UNK         0.1257 
    108 H108       33.3497  -47.3700  -56.0685 H         1 UNK         0.0775 
    109 H109       32.1109  -46.2495  -55.6298 H         1 UNK         0.0775 
    110 H110       31.6299  -44.1047  -58.8302 H         1 UNK         0.0840 
    111 H111       30.5900  -45.1418  -57.8876 H         1 UNK         0.0840 
    112 H112       32.5079  -49.3867  -55.5759 H         1 UNK         0.2987 
    113 H113       31.0534  -52.5799  -56.2231 H         1 UNK         0.0785 
    114 H114       32.8312  -52.3844  -57.9678 H         1 UNK         0.0798 
    115 H115       33.4248  -53.2323  -56.5502 H         1 UNK         0.0798 
    116 H116       33.8806  -51.5510  -56.8298 H         1 UNK         0.0798 
    117 H117       33.1342  -51.7077  -54.4547 H         1 UNK         0.3079 
    118 H118       31.0353  -50.6801  -51.7726 H         1 UNK         0.0794 
    119 H119       32.2814  -52.4205  -50.5364 H         1 UNK         0.0786 
    120 H120       32.7914  -53.1791  -52.0455 H         1 UNK         0.0786 
    121 H121       31.0947  -53.1771  -51.5843 H         1 UNK         0.0786 
    122 H122       33.8039  -50.8610  -51.7559 H         1 UNK         0.3032 
    123 H123       34.9859  -48.9165  -51.6569 H         1 UNK         0.1094 
    124 H124       35.1025  -48.5675  -54.7118 H         1 UNK         0.0794 
    125 H125       36.4778  -48.4671  -53.6134 H         1 UNK         0.0794 
    126 H126       35.6353  -49.9906  -53.8282 H         1 UNK         0.0794 
    127 H127       34.6943  -46.5751  -53.3258 H         1 UNK         0.3016 
@<TRIPOS>BOND
     1    1    2 1    
     2    1   67 1    
     3    1   68 1    
     4    1   69 1    
     5    2    3 2    
     6    2    4 am   BACKBONE|DICT|INTERRES
     7    4    5 1    
     8    4   70 1    
     9    5    6 1    
    10    5   65 1    
    11    5   71 1    
    12    6    7 1    
    13    6   72 1    
    14    6   73 1    
    15    7    8 1    
    16    8    9 1    
    17    8   74 1    
    18    8   75 1    
    19    9   10 ar   
    20    9   14 ar   
    21   10   11 ar   
    22   10   76 1    
    23   11   12 ar   
    24   11   48 1    
    25   12   13 ar   
    26   12   77 1    
    27   13   14 ar   
    28   13   15 1    
    29   14   78 1    
    30   15   16 1    
    31   15   79 1    
    32   15   80 1    
    33   16   17 1    
    34   17   18 1    
    35   17   81 1    
    36   17   82 1    
    37   18   19 1    
    38   18   22 1    
    39   18   83 1    
    40   19   20 am   BACKBONE|DICT|INTERRES
    41   19   21 2    
    42   20   84 1    
    43   20   85 1    
    44   22   23 am   BACKBONE|DICT|INTERRES
    45   22   86 1    
    46   23   24 2    
    47   23   25 1    
    48   25   26 1    
    49   25   27 1    
    50   25   87 1    
    51   26   88 1    
    52   26   89 1    
    53   26   90 1    
    54   27   28 am   BACKBONE|DICT|INTERRES
    55   27   91 1    
    56   28   29 2    
    57   28   30 1    
    58   30   31 1    
    59   30   32 1    
    60   30   92 1    
    61   31   93 1    
    62   31   94 1    
    63   31   95 1    
    64   32   33 am   BACKBONE|DICT|INTERRES
    65   32   96 1    
    66   33   34 2    
    67   33   35 1    
    68   35   36 1    
    69   35   37 1    
    70   35   97 1    
    71   36   98 1    
    72   36   99 1    
    73   36  100 1    
    74   37   38 am   BACKBONE|DICT|INTERRES
    75   37  101 1    
    76   38   39 2    
    77   38   40 1    
    78   40   41 1    
    79   40   42 1    
    80   40  102 1    
    81   41  103 1    
    82   41  104 1    
    83   41  105 1    
    84   42   43 am   BACKBONE|DICT|INTERRES
    85   42  106 1    
    86   43   44 2    
    87   43   45 1    
    88   45   46 1    
    89   45   49 1    
    90   45  107 1    
    91   46   47 1    
    92   46  108 1    
    93   46  109 1    
    94   47   48 1    
    95   48  110 1    
    96   48  111 1    
    97   49   50 am   BACKBONE|DICT|INTERRES
    98   49  112 1    
    99   50   51 2    
   100   50   52 1    
   101   52   53 1    
   102   52   54 1    
   103   52  113 1    
   104   53  114 1    
   105   53  115 1    
   106   53  116 1    
   107   54   55 am   BACKBONE|DICT|INTERRES
   108   54  117 1    
   109   55   56 2    
   110   55   57 1    
   111   57   58 1    
   112   57   59 1    
   113   57  118 1    
   114   58  119 1    
   115   58  120 1    
   116   58  121 1    
   117   59   60 am   BACKBONE|DICT|INTERRES
   118   59  122 1    
   119   60   61 2    
   120   60   62 1    
   121   62   63 1    
   122   62   64 1    
   123   62  123 1    
   124   63  124 1    
   125   63  125 1    
   126   63  126 1    
   127   64   65 am   BACKBONE|DICT|INTERRES
   128   64  127 1    
   129   65   66 2    
@<TRIPOS>SUBSTRUCTURE
     1 UNK         1 GROUP             0       ****    0 ROOT    
