@<TRIPOS>MOLECULE
3R134
127   129    1
SMALL
USER_CHARGES


@<TRIPOS>ATOM
      1 CA         37.1719  -44.7920  -58.0385 C.3       0 UNK        -0.1968 
      2 C          36.4754  -45.1889  -56.7450 C.2       0 UNK         0.4852 
      3 O          37.1105  -45.1916  -55.6898 O.2       0 UNK        -0.5359 
      4 N          35.1787  -45.5250  -56.8256 N.am      1 UNK        -0.4300 
      5 CA         34.3171  -45.9425  -55.7098 C.3       1 UNK         0.0863 
      6 C6         34.0956  -44.8093  -54.6673 C.3       11 UNK        -0.0953 
      7 S7         32.5172  -44.9749  -53.7682 S.3       11 UNK        -0.2369 
      8 C8         31.5844  -43.5199  -54.3441 C.3       11 UNK         0.0226 
      9 C9         30.2157  -43.4273  -53.6789 C.ar      11 UNK        -0.0699 
     10 C10        30.1177  -43.3785  -52.2849 C.ar      11 UNK        -0.0804 
     11 C11        28.8716  -43.3023  -51.6580 C.ar      11 UNK        -0.0871 
     12 C12        27.7141  -43.2440  -52.4392 C.ar      11 UNK        -0.1008 
     13 C13        27.7935  -43.2630  -53.8362 C.ar      11 UNK        -0.0735 
     14 C14        29.0490  -43.3641  -54.4498 C.ar      11 UNK        -0.0945 
     15 C15        26.5193  -43.1149  -54.6629 C.3       11 UNK         0.0169 
     16 S16        26.2665  -44.4677  -55.8563 S.3       11 UNK        -0.2669 
     17 C17        26.6712  -43.6174  -57.4235 C.3       11 UNK        -0.0850 
     18 CA         26.7777  -44.5879  -58.6356 C.3       10 UNK         0.0855 
     19 C          26.9524  -43.8426  -59.9936 C.2       10 UNK         0.5543 
     20 N          27.6691  -44.3973  -60.9636 N.am      10 UNK        -0.7343 
     21 O          26.4055  -42.7591  -60.1863 O.2       10 UNK        -0.5027 
     22 N          27.7298  -45.6875  -58.4068 N.am      10 UNK        -0.4495 
     23 C          29.0464  -45.5674  -58.1845 C.2       10 UNK         0.4903 
     24 O          29.6520  -44.4959  -58.2293 O.2       10 UNK        -0.4860 
     25 CA         29.8301  -46.8431  -57.8249 C.3       9 UNK         0.0227 
     26 CB         30.4052  -46.7102  -56.4073 C.3       9 UNK        -0.1964 
     27 N          29.0013  -48.0499  -57.8892 N.am      9 UNK        -0.4231 
     28 C          28.8718  -48.8302  -58.9727 C.2       9 UNK         0.5014 
     29 O          29.5166  -48.6689  -60.0095 O.2       9 UNK        -0.5270 
     30 CA         27.8336  -49.9705  -58.9143 C.3       8 UNK         0.0284 
     31 CB         28.5095  -51.2992  -58.5402 C.3       8 UNK        -0.1977 
     32 N          26.7209  -49.7213  -57.9928 N.am      8 UNK        -0.4342 
     33 C          25.8420  -48.7150  -58.0988 C.2       8 UNK         0.5039 
     34 O          25.8256  -47.9239  -59.0414 O.2       8 UNK        -0.5547 
     35 CA         24.8509  -48.5138  -56.9369 C.3       7 UNK         0.0281 
     36 CB         23.4954  -49.1549  -57.2751 C.3       7 UNK        -0.1963 
     37 N          25.3050  -49.0007  -55.6254 N.am      7 UNK        -0.4444 
     38 C          26.4444  -48.6517  -55.0118 C.2       7 UNK         0.5104 
     39 O          27.3265  -47.9683  -55.5361 O.2       7 UNK        -0.5100 
     40 CA         26.6532  -49.2035  -53.5976 C.3       6 UNK         0.0396 
     41 CB         27.2712  -50.6099  -53.6567 C.3       6 UNK        -0.1801 
     42 N          27.5709  -48.3186  -52.8909 N.am      6 UNK        -0.4747 
     43 C          27.3773  -47.7389  -51.7038 C.2       6 UNK         0.5012 
     44 O          26.3918  -47.9534  -50.9948 O.2       6 UNK        -0.5003 
     45 CA         28.4872  -46.7726  -51.2281 C.3       5 UNK         0.0782 
     46 C46        28.0969  -46.0163  -49.9301 C.3       11 UNK        -0.0868 
     47 S47        29.3699  -44.8264  -49.3858 S.3       11 UNK        -0.2515 
     48 C48        28.7825  -43.2733  -50.1379 C.3       11 UNK         0.0199 
     49 N          29.7818  -47.4564  -51.1024 N.am      5 UNK        -0.4607 
     50 C          30.5762  -47.7863  -52.1280 C.2       4 UNK         0.5031 
     51 O          30.2725  -47.5742  -53.3028 O.2       4 UNK        -0.5119 
     52 CA         31.9341  -48.4417  -51.8060 C.3       4 UNK         0.0263 
     53 CB         31.9665  -49.2025  -50.4607 C.3       4 UNK        -0.1967 
     54 N          32.3890  -49.2866  -52.9171 N.am      4 UNK        -0.4237 
     55 C          31.7980  -50.4009  -53.3817 C.2       3 UNK         0.4908 
     56 O          30.8630  -50.9675  -52.8140 O.2       3 UNK        -0.5102 
     57 CA         32.2982  -50.9807  -54.7211 C.3       3 UNK         0.0241 
     58 CB         31.1659  -50.9776  -55.7640 C.3       3 UNK        -0.1971 
     59 N          33.4494  -50.2653  -55.2775 N.am      3 UNK        -0.4139 
     60 C          34.7245  -50.4627  -54.9176 C.2       2 UNK         0.5016 
     61 O          35.0851  -51.3208  -54.1115 O.2       2 UNK        -0.5319 
     62 CA         35.7751  -49.5278  -55.5467 C.3       2 UNK         0.0286 
     63 CB         36.4291  -50.1963  -56.7667 C.3       2 UNK        -0.1963 
     64 N          35.2553  -48.2103  -55.9400 N.am      2 UNK        -0.4790 
     65 C          34.7616  -47.2930  -55.0920 C.2       1 UNK         0.5024 
     66 O          34.6437  -47.5010  -53.8835 O.2       1 UNK        -0.4888 
     67 H67        37.5626  -43.7779  -57.9577 H         1 UNK         0.0892 
     68 H68        38.0067  -45.4639  -58.2362 H         1 UNK         0.0892 
     69 H69        36.4981  -44.8277  -58.8943 H         1 UNK         0.0892 
     70 H70        34.7255  -45.4945  -57.7289 H         1 UNK         0.3107 
     71 H71        33.3552  -46.1497  -56.1777 H         1 UNK         0.0773 
     72 H72        34.9136  -44.7729  -53.9455 H         1 UNK         0.0680 
     73 H73        34.1019  -43.8388  -55.1655 H         1 UNK         0.0680 
     74 H74        31.4862  -43.5668  -55.4297 H         1 UNK         0.0650 
     75 H75        32.1503  -42.6155  -54.1169 H         1 UNK         0.0650 
     76 H76        31.0158  -43.4208  -51.6835 H         1 UNK         0.1397 
     77 H77        26.7486  -43.1673  -51.9576 H         1 UNK         0.1363 
     78 H78        29.1182  -43.3854  -55.5284 H         1 UNK         0.1355 
     79 H79        25.6453  -43.0841  -54.0105 H         1 UNK         0.0707 
     80 H80        26.5398  -42.1536  -55.1779 H         1 UNK         0.0707 
     81 H81        27.5981  -43.0552  -57.3048 H         1 UNK         0.1034 
     82 H82        25.8912  -42.8750  -57.6020 H         1 UNK         0.1034 
     83 H83        25.8084  -45.0790  -58.7275 H         1 UNK         0.0482 
     84 H84        28.1112  -45.2909  -60.8184 H         1 UNK         0.3460 
     85 H85        27.7705  -43.9167  -61.8435 H         1 UNK         0.3460 
     86 H86        27.3147  -46.6113  -58.4093 H         1 UNK         0.2989 
     87 H87        30.6651  -46.9270  -58.5231 H         1 UNK         0.0559 
     88 H88        31.0510  -45.8368  -56.3309 H         1 UNK         0.0848 
     89 H89        30.9966  -47.5791  -56.1221 H         1 UNK         0.0848 
     90 H90        29.6158  -46.5819  -55.6657 H         1 UNK         0.0848 
     91 H91        28.4049  -48.2138  -57.0798 H         1 UNK         0.3144 
     92 H92        27.4126  -50.0726  -59.9168 H         1 UNK         0.0727 
     93 H93        27.8157  -52.1356  -58.6275 H         1 UNK         0.0790 
     94 H94        28.8897  -51.2838  -57.5190 H         1 UNK         0.0790 
     95 H95        29.3525  -51.5102  -59.2000 H         1 UNK         0.0790 
     96 H96        26.6567  -50.3193  -57.1823 H         1 UNK         0.3215 
     97 H97        24.7025  -47.4360  -56.8380 H         1 UNK         0.0863 
     98 H98        23.5683  -50.2411  -57.3436 H         1 UNK         0.0808 
     99 H99        23.1203  -48.7927  -58.2336 H         1 UNK         0.0808 
    100 H100       22.7420  -48.9136  -56.5251 H         1 UNK         0.0808 
    101 H101       24.6553  -49.5879  -55.1215 H         1 UNK         0.3118 
    102 H102       25.6882  -49.2462  -53.0886 H         1 UNK         0.0546 
    103 H103       27.4438  -51.0070  -52.6562 H         1 UNK         0.0828 
    104 H104       28.2293  -50.6068  -54.1790 H         1 UNK         0.0828 
    105 H105       26.6153  -51.3102  -54.1749 H         1 UNK         0.0828 
    106 H106       28.4094  -48.0608  -53.4094 H         1 UNK         0.3005 
    107 H107       28.5851  -46.0263  -52.0198 H         1 UNK         0.1257 
    108 H108       27.9328  -46.7223  -49.1139 H         1 UNK         0.0775 
    109 H109       27.1525  -45.4853  -50.0645 H         1 UNK         0.0775 
    110 H110       27.7627  -43.0727  -49.8055 H         1 UNK         0.0840 
    111 H111       29.3916  -42.4495  -49.7634 H         1 UNK         0.0840 
    112 H112       30.0832  -47.6647  -50.1625 H         1 UNK         0.2987 
    113 H113       32.6540  -47.6242  -51.7432 H         1 UNK         0.0785 
    114 H114       32.9155  -49.7218  -50.3266 H         1 UNK         0.0798 
    115 H115       31.8582  -48.5204  -49.6169 H         1 UNK         0.0798 
    116 H116       31.1700  -49.9442  -50.3901 H         1 UNK         0.0798 
    117 H117       33.1463  -48.8853  -53.4583 H         1 UNK         0.3079 
    118 H118       32.5848  -52.0182  -54.5361 H         1 UNK         0.0794 
    119 H119       30.3231  -51.5806  -55.4236 H         1 UNK         0.0786 
    120 H120       31.4968  -51.3968  -56.7144 H         1 UNK         0.0786 
    121 H121       30.7888  -49.9717  -55.9510 H         1 UNK         0.0786 
    122 H122       33.2542  -49.5408  -55.9527 H         1 UNK         0.3032 
    123 H123       36.5474  -49.3645  -54.7913 H         1 UNK         0.1094 
    124 H124       35.7112  -50.3618  -57.5710 H         1 UNK         0.0794 
    125 H125       37.2451  -49.5909  -57.1620 H         1 UNK         0.0794 
    126 H126       36.8497  -51.1674  -56.5008 H         1 UNK         0.0794 
    127 H127       35.3310  -47.9661  -56.9172 H         1 UNK         0.3016 
@<TRIPOS>BOND
     1    1    2 1    
     2    1   67 1    
     3    1   68 1    
     4    1   69 1    
     5    2    3 2    
     6    2    4 am   BACKBONE|DICT|INTERRES
     7    4    5 1    
     8    4   70 1    
     9    5    6 1    
    10    5   65 1    
    11    5   71 1    
    12    6    7 1    
    13    6   72 1    
    14    6   73 1    
    15    7    8 1    
    16    8    9 1    
    17    8   74 1    
    18    8   75 1    
    19    9   10 ar   
    20    9   14 ar   
    21   10   11 ar   
    22   10   76 1    
    23   11   12 ar   
    24   11   48 1    
    25   12   13 ar   
    26   12   77 1    
    27   13   14 ar   
    28   13   15 1    
    29   14   78 1    
    30   15   16 1    
    31   15   79 1    
    32   15   80 1    
    33   16   17 1    
    34   17   18 1    
    35   17   81 1    
    36   17   82 1    
    37   18   19 1    
    38   18   22 1    
    39   18   83 1    
    40   19   20 am   BACKBONE|DICT|INTERRES
    41   19   21 2    
    42   20   84 1    
    43   20   85 1    
    44   22   23 am   BACKBONE|DICT|INTERRES
    45   22   86 1    
    46   23   24 2    
    47   23   25 1    
    48   25   26 1    
    49   25   27 1    
    50   25   87 1    
    51   26   88 1    
    52   26   89 1    
    53   26   90 1    
    54   27   28 am   BACKBONE|DICT|INTERRES
    55   27   91 1    
    56   28   29 2    
    57   28   30 1    
    58   30   31 1    
    59   30   32 1    
    60   30   92 1    
    61   31   93 1    
    62   31   94 1    
    63   31   95 1    
    64   32   33 am   BACKBONE|DICT|INTERRES
    65   32   96 1    
    66   33   34 2    
    67   33   35 1    
    68   35   36 1    
    69   35   37 1    
    70   35   97 1    
    71   36   98 1    
    72   36   99 1    
    73   36  100 1    
    74   37   38 am   BACKBONE|DICT|INTERRES
    75   37  101 1    
    76   38   39 2    
    77   38   40 1    
    78   40   41 1    
    79   40   42 1    
    80   40  102 1    
    81   41  103 1    
    82   41  104 1    
    83   41  105 1    
    84   42   43 am   BACKBONE|DICT|INTERRES
    85   42  106 1    
    86   43   44 2    
    87   43   45 1    
    88   45   46 1    
    89   45   49 1    
    90   45  107 1    
    91   46   47 1    
    92   46  108 1    
    93   46  109 1    
    94   47   48 1    
    95   48  110 1    
    96   48  111 1    
    97   49   50 am   BACKBONE|DICT|INTERRES
    98   49  112 1    
    99   50   51 2    
   100   50   52 1    
   101   52   53 1    
   102   52   54 1    
   103   52  113 1    
   104   53  114 1    
   105   53  115 1    
   106   53  116 1    
   107   54   55 am   BACKBONE|DICT|INTERRES
   108   54  117 1    
   109   55   56 2    
   110   55   57 1    
   111   57   58 1    
   112   57   59 1    
   113   57  118 1    
   114   58  119 1    
   115   58  120 1    
   116   58  121 1    
   117   59   60 am   BACKBONE|DICT|INTERRES
   118   59  122 1    
   119   60   61 2    
   120   60   62 1    
   121   62   63 1    
   122   62   64 1    
   123   62  123 1    
   124   63  124 1    
   125   63  125 1    
   126   63  126 1    
   127   64   65 am   BACKBONE|DICT|INTERRES
   128   64  127 1    
   129   65   66 2    
@<TRIPOS>SUBSTRUCTURE
     1 UNK         1 GROUP             0       ****    0 ROOT    
