@<TRIPOS>MOLECULE
3R134
127   129    1
SMALL
USER_CHARGES


@<TRIPOS>ATOM
      1 CA         30.5707  -46.4119  -48.2462 C.3       0 UNK        -0.1968 
      2 C          31.3129  -46.1264  -49.5437 C.2       0 UNK         0.4852 
      3 O          30.9001  -46.6111  -50.5970 O.2       0 UNK        -0.5359 
      4 N          32.4000  -45.3442  -49.4693 N.am      1 UNK        -0.4300 
      5 CA         33.2866  -44.9797  -50.5823 C.3       1 UNK         0.0863 
      6 C6         32.5775  -44.0857  -51.6493 C.3       11 UNK        -0.0953 
      7 S7         33.6029  -42.6708  -52.1773 S.3       11 UNK        -0.2369 
      8 C8         34.1930  -43.1463  -53.8412 C.3       11 UNK         0.0226 
      9 C9         33.1256  -43.3263  -54.9242 C.ar      11 UNK        -0.0699 
     10 C10        33.5010  -43.9409  -56.1235 C.ar      11 UNK        -0.0804 
     11 C11        32.5877  -44.0978  -57.1706 C.ar      11 UNK        -0.0871 
     12 C12        31.2761  -43.6429  -57.0083 C.ar      11 UNK        -0.1008 
     13 C13        30.8804  -43.0288  -55.8167 C.ar      11 UNK        -0.0735 
     14 C14        31.8095  -42.8645  -54.7850 C.ar      11 UNK        -0.0945 
     15 C15        29.4583  -42.5152  -55.6514 C.3       11 UNK         0.0169 
     16 S16        28.5161  -43.5344  -54.4754 S.3       11 UNK        -0.2669 
     17 C17        26.8334  -42.8601  -54.6919 C.3       11 UNK        -0.0850 
     18 CA         25.8518  -43.8761  -55.3343 C.3       10 UNK         0.0855 
     19 C          24.4329  -43.2518  -55.4381 C.2       10 UNK         0.5543 
     20 N          23.5765  -43.4880  -54.4538 N.am      10 UNK        -0.7343 
     21 O          24.1244  -42.5163  -56.3742 O.2       10 UNK        -0.5027 
     22 N          26.3636  -44.3772  -56.6188 N.am      10 UNK        -0.4495 
     23 C          25.7934  -45.3139  -57.3874 C.2       10 UNK         0.4903 
     24 O          24.7290  -45.8704  -57.1127 O.2       10 UNK        -0.4860 
     25 CA         26.5342  -45.6966  -58.6847 C.3       9 UNK         0.0227 
     26 CB         27.9017  -44.9993  -58.8608 C.3       9 UNK        -0.1964 
     27 N          26.7473  -47.1409  -58.7244 N.am      9 UNK        -0.4231 
     28 C          25.9157  -48.0512  -59.2468 C.2       9 UNK         0.5014 
     29 O          24.8675  -47.7773  -59.8335 O.2       9 UNK        -0.5270 
     30 CA         26.3318  -49.5230  -59.0974 C.3       8 UNK         0.0284 
     31 CB         27.3973  -49.8947  -60.1430 C.3       8 UNK        -0.1977 
     32 N          26.8523  -49.7956  -57.7558 N.am      8 UNK        -0.4342 
     33 C          26.1316  -50.3006  -56.7451 C.2       8 UNK         0.5039 
     34 O          24.9531  -50.6440  -56.8494 O.2       8 UNK        -0.5547 
     35 CA         26.8377  -50.4699  -55.3853 C.3       7 UNK         0.0281 
     36 CB         27.4097  -51.8910  -55.2571 C.3       7 UNK        -0.1963 
     37 N          27.9061  -49.4945  -55.1523 N.am      7 UNK        -0.4444 
     38 C          27.7102  -48.1781  -54.9921 C.2       7 UNK         0.5104 
     39 O          26.5968  -47.6625  -54.9062 O.2       7 UNK        -0.5100 
     40 CA         28.9557  -47.2745  -54.9546 C.3       6 UNK         0.0396 
     41 CB         29.3573  -46.9610  -53.5074 C.3       6 UNK        -0.1801 
     42 N          30.1194  -47.7997  -55.6747 N.am      6 UNK        -0.4747 
     43 C          30.1615  -48.0746  -56.9860 C.2       6 UNK         0.5012 
     44 O          29.1797  -48.0191  -57.7255 O.2       6 UNK        -0.5003 
     45 CA         31.5146  -48.5304  -57.5566 C.3       5 UNK         0.0782 
     46 C46        32.5241  -47.3624  -57.6664 C.3       11 UNK        -0.0868 
     47 S47        32.0654  -46.1764  -58.9729 S.3       11 UNK        -0.2515 
     48 C48        33.0370  -44.7126  -58.4920 C.3       11 UNK         0.0199 
     49 N          32.0393  -49.6237  -56.7416 N.am      5 UNK        -0.4607 
     50 C          31.6993  -50.9102  -56.8929 C.2       4 UNK         0.5031 
     51 O          30.9866  -51.3257  -57.8064 O.2       4 UNK        -0.5119 
     52 CA         32.2315  -51.9066  -55.8459 C.3       4 UNK         0.0263 
     53 CB         33.5417  -52.5463  -56.3324 C.3       4 UNK        -0.1967 
     54 N          32.4453  -51.3116  -54.5233 N.am      4 UNK        -0.4237 
     55 C          31.4702  -50.8290  -53.7399 C.2       3 UNK         0.4908 
     56 O          30.2761  -50.8582  -54.0357 O.2       3 UNK        -0.5102 
     57 CA         31.9035  -50.1559  -52.4260 C.3       3 UNK         0.0241 
     58 CB         32.0576  -51.2016  -51.3104 C.3       3 UNK        -0.1971 
     59 N          33.1285  -49.3495  -52.5156 N.am      3 UNK        -0.4139 
     60 C          33.3497  -48.3656  -53.3985 C.2       2 UNK         0.5016 
     61 O          32.5885  -48.0845  -54.3253 O.2       2 UNK        -0.5319 
     62 CA         34.6020  -47.5078  -53.1804 C.3       2 UNK         0.0286 
     63 CB         35.2582  -47.1071  -54.5139 C.3       2 UNK        -0.1963 
     64 N          34.1864  -46.3034  -52.4683 N.am      2 UNK        -0.4790 
     65 C          34.0023  -46.2322  -51.1449 C.2       1 UNK         0.5024 
     66 O          34.3730  -47.1180  -50.3695 O.2       1 UNK        -0.4888 
     67 H67        30.5580  -47.4839  -48.0510 H         1 UNK         0.0892 
     68 H68        31.0334  -45.9168  -47.3926 H         1 UNK         0.0892 
     69 H69        29.5399  -46.0666  -48.3209 H         1 UNK         0.0892 
     70 H70        32.6963  -45.0083  -48.5636 H         1 UNK         0.3107 
     71 H71        34.0766  -44.3919  -50.1124 H         1 UNK         0.0773 
     72 H72        31.6834  -43.6368  -51.2136 H         1 UNK         0.0680 
     73 H73        32.2002  -44.6506  -52.5032 H         1 UNK         0.0680 
     74 H74        34.7991  -44.0477  -53.7600 H         1 UNK         0.0650 
     75 H75        34.8740  -42.3639  -54.1784 H         1 UNK         0.0650 
     76 H76        34.5205  -44.2794  -56.2503 H         1 UNK         0.1397 
     77 H77        30.5698  -43.7578  -57.8185 H         1 UNK         0.1363 
     78 H78        31.4920  -42.3713  -53.8776 H         1 UNK         0.1355 
     79 H79        28.9452  -42.5006  -56.6140 H         1 UNK         0.0707 
     80 H80        29.4820  -41.4837  -55.2968 H         1 UNK         0.0707 
     81 H81        26.4720  -42.5629  -53.7054 H         1 UNK         0.1034 
     82 H82        26.8758  -41.9415  -55.2806 H         1 UNK         0.1034 
     83 H83        25.7889  -44.7439  -54.6742 H         1 UNK         0.0482 
     84 H84        22.6570  -43.0768  -54.4944 H         1 UNK         0.3460 
     85 H85        23.8248  -44.0829  -53.6786 H         1 UNK         0.3460 
     86 H86        27.2359  -43.9758  -56.9227 H         1 UNK         0.2989 
     87 H87        25.8969  -45.3995  -59.5199 H         1 UNK         0.0559 
     88 H88        28.5893  -45.2365  -58.0473 H         1 UNK         0.0848 
     89 H89        28.3814  -45.3119  -59.7888 H         1 UNK         0.0848 
     90 H90        27.7956  -43.9150  -58.9130 H         1 UNK         0.0848 
     91 H91        27.6046  -47.4724  -58.2842 H         1 UNK         0.3144 
     92 H92        25.4511  -50.1406  -59.2864 H         1 UNK         0.0727 
     93 H93        27.6609  -50.9506  -60.0795 H         1 UNK         0.0790 
     94 H94        28.3126  -49.3148  -60.0182 H         1 UNK         0.0790 
     95 H95        27.0307  -49.7121  -61.1540 H         1 UNK         0.0790 
     96 H96        27.8008  -49.4882  -57.5695 H         1 UNK         0.3215 
     97 H97        26.0837  -50.3333  -54.6071 H         1 UNK         0.0863 
     98 H98        27.8059  -52.0692  -54.2573 H         1 UNK         0.0808 
     99 H99        28.2142  -52.0680  -55.9724 H         1 UNK         0.0808 
    100 H100       26.6393  -52.6422  -55.4369 H         1 UNK         0.0808 
    101 H101       28.8546  -49.8535  -55.0979 H         1 UNK         0.3118 
    102 H102       28.6820  -46.3372  -55.4419 H         1 UNK         0.0546 
    103 H103       29.6429  -47.8612  -52.9646 H         1 UNK         0.0828 
    104 H104       28.5324  -46.4992  -52.9636 H         1 UNK         0.0828 
    105 H105       30.1967  -46.2660  -53.4682 H         1 UNK         0.0828 
    106 H106       30.9819  -47.8894  -55.1384 H         1 UNK         0.3005 
    107 H107       31.3318  -48.9090  -58.5654 H         1 UNK         0.1257 
    108 H108       33.5161  -47.7477  -57.9070 H         1 UNK         0.0775 
    109 H109       32.6249  -46.8423  -56.7125 H         1 UNK         0.0775 
    110 H110       34.0924  -44.9879  -58.4579 H         1 UNK         0.0840 
    111 H111       32.9443  -43.9599  -59.2760 H         1 UNK         0.0840 
    112 H112       32.5558  -49.3455  -55.9150 H         1 UNK         0.2987 
    113 H113       31.4837  -52.6955  -55.7387 H         1 UNK         0.0785 
    114 H114       34.3373  -51.8078  -56.4393 H         1 UNK         0.0798 
    115 H115       33.8874  -53.3174  -55.6436 H         1 UNK         0.0798 
    116 H116       33.4057  -53.0215  -57.3051 H         1 UNK         0.0798 
    117 H117       33.3992  -51.2390  -54.2008 H         1 UNK         0.3079 
    118 H118       31.1019  -49.4752  -52.1350 H         1 UNK         0.0794 
    119 H119       32.2362  -50.7278  -50.3448 H         1 UNK         0.0786 
    120 H120       32.8836  -51.8860  -51.5078 H         1 UNK         0.0786 
    121 H121       31.1523  -51.8024  -51.2105 H         1 UNK         0.0786 
    122 H122       33.7947  -49.4705  -51.7656 H         1 UNK         0.3032 
    123 H123       35.3326  -48.0665  -52.5905 H         1 UNK         0.1094 
    124 H124       34.5800  -46.5362  -55.1484 H         1 UNK         0.0794 
    125 H125       36.1501  -46.5023  -54.3499 H         1 UNK         0.0794 
    126 H126       35.5634  -47.9897  -55.0773 H         1 UNK         0.0794 
    127 H127       33.8117  -45.5589  -53.0380 H         1 UNK         0.3016 
@<TRIPOS>BOND
     1    1    2 1    
     2    1   67 1    
     3    1   68 1    
     4    1   69 1    
     5    2    3 2    
     6    2    4 am   BACKBONE|DICT|INTERRES
     7    4    5 1    
     8    4   70 1    
     9    5    6 1    
    10    5   65 1    
    11    5   71 1    
    12    6    7 1    
    13    6   72 1    
    14    6   73 1    
    15    7    8 1    
    16    8    9 1    
    17    8   74 1    
    18    8   75 1    
    19    9   10 ar   
    20    9   14 ar   
    21   10   11 ar   
    22   10   76 1    
    23   11   12 ar   
    24   11   48 1    
    25   12   13 ar   
    26   12   77 1    
    27   13   14 ar   
    28   13   15 1    
    29   14   78 1    
    30   15   16 1    
    31   15   79 1    
    32   15   80 1    
    33   16   17 1    
    34   17   18 1    
    35   17   81 1    
    36   17   82 1    
    37   18   19 1    
    38   18   22 1    
    39   18   83 1    
    40   19   20 am   BACKBONE|DICT|INTERRES
    41   19   21 2    
    42   20   84 1    
    43   20   85 1    
    44   22   23 am   BACKBONE|DICT|INTERRES
    45   22   86 1    
    46   23   24 2    
    47   23   25 1    
    48   25   26 1    
    49   25   27 1    
    50   25   87 1    
    51   26   88 1    
    52   26   89 1    
    53   26   90 1    
    54   27   28 am   BACKBONE|DICT|INTERRES
    55   27   91 1    
    56   28   29 2    
    57   28   30 1    
    58   30   31 1    
    59   30   32 1    
    60   30   92 1    
    61   31   93 1    
    62   31   94 1    
    63   31   95 1    
    64   32   33 am   BACKBONE|DICT|INTERRES
    65   32   96 1    
    66   33   34 2    
    67   33   35 1    
    68   35   36 1    
    69   35   37 1    
    70   35   97 1    
    71   36   98 1    
    72   36   99 1    
    73   36  100 1    
    74   37   38 am   BACKBONE|DICT|INTERRES
    75   37  101 1    
    76   38   39 2    
    77   38   40 1    
    78   40   41 1    
    79   40   42 1    
    80   40  102 1    
    81   41  103 1    
    82   41  104 1    
    83   41  105 1    
    84   42   43 am   BACKBONE|DICT|INTERRES
    85   42  106 1    
    86   43   44 2    
    87   43   45 1    
    88   45   46 1    
    89   45   49 1    
    90   45  107 1    
    91   46   47 1    
    92   46  108 1    
    93   46  109 1    
    94   47   48 1    
    95   48  110 1    
    96   48  111 1    
    97   49   50 am   BACKBONE|DICT|INTERRES
    98   49  112 1    
    99   50   51 2    
   100   50   52 1    
   101   52   53 1    
   102   52   54 1    
   103   52  113 1    
   104   53  114 1    
   105   53  115 1    
   106   53  116 1    
   107   54   55 am   BACKBONE|DICT|INTERRES
   108   54  117 1    
   109   55   56 2    
   110   55   57 1    
   111   57   58 1    
   112   57   59 1    
   113   57  118 1    
   114   58  119 1    
   115   58  120 1    
   116   58  121 1    
   117   59   60 am   BACKBONE|DICT|INTERRES
   118   59  122 1    
   119   60   61 2    
   120   60   62 1    
   121   62   63 1    
   122   62   64 1    
   123   62  123 1    
   124   63  124 1    
   125   63  125 1    
   126   63  126 1    
   127   64   65 am   BACKBONE|DICT|INTERRES
   128   64  127 1    
   129   65   66 2    
@<TRIPOS>SUBSTRUCTURE
     1 UNK         1 GROUP             0       ****    0 ROOT    
