@<TRIPOS>MOLECULE
3R134
127   129    1
SMALL
USER_CHARGES


@<TRIPOS>ATOM
      1 CA         29.3264  -44.3037  -51.5801 C.3       0 UNK        -0.1968 
      2 C          30.6601  -44.6443  -50.9340 C.2       0 UNK         0.4852 
      3 O          30.7184  -44.8454  -49.7196 O.2       0 UNK        -0.5359 
      4 N          31.7285  -44.7102  -51.7382 N.am      1 UNK        -0.4300 
      5 CA         33.0674  -45.1306  -51.3121 C.3       1 UNK         0.0863 
      6 C6         34.1658  -44.6471  -52.2928 C.3       11 UNK        -0.0953 
      7 S7         34.2191  -42.8255  -52.3972 S.3       11 UNK        -0.2369 
      8 C8         34.2115  -42.5304  -54.1956 C.3       11 UNK         0.0226 
      9 C9         32.9730  -43.0844  -54.8889 C.ar      11 UNK        -0.0699 
     10 C10        33.1111  -44.0188  -55.9215 C.ar      11 UNK        -0.0804 
     11 C11        31.9852  -44.5231  -56.5782 C.ar      11 UNK        -0.0871 
     12 C12        30.7144  -44.1021  -56.1780 C.ar      11 UNK        -0.1008 
     13 C13        30.5628  -43.1482  -55.1687 C.ar      11 UNK        -0.0735 
     14 C14        31.6959  -42.6406  -54.5266 C.ar      11 UNK        -0.0945 
     15 C15        29.1694  -42.6663  -54.7970 C.3       11 UNK         0.0169 
     16 S16        28.4513  -41.6564  -56.1306 S.3       11 UNK        -0.2669 
     17 C17        26.6812  -41.6241  -55.6735 C.3       11 UNK        -0.0850 
     18 CA         25.9648  -42.9979  -55.8013 C.3       10 UNK         0.0855 
     19 C          24.4421  -42.8616  -55.5359 C.2       10 UNK         0.5543 
     20 N          24.0314  -42.8557  -54.2752 N.am      10 UNK        -0.7343 
     21 O          23.6369  -42.7195  -56.4546 O.2       10 UNK        -0.5027 
     22 N          26.2459  -43.6528  -57.0874 N.am      10 UNK        -0.4495 
     23 C          26.2558  -44.9768  -57.2709 C.2       10 UNK         0.4903 
     24 O          26.0330  -45.7906  -56.3734 O.2       10 UNK        -0.4860 
     25 CA         26.6125  -45.4609  -58.6875 C.3       9 UNK         0.0227 
     26 CB         28.0504  -45.0626  -59.0662 C.3       9 UNK        -0.1964 
     27 N          26.5022  -46.9154  -58.7951 N.am      9 UNK        -0.4231 
     28 C          25.3764  -47.5901  -59.0579 C.2       9 UNK         0.5014 
     29 O          24.2946  -47.0546  -59.3044 O.2       9 UNK        -0.5270 
     30 CA         25.4739  -49.1224  -59.0520 C.3       8 UNK         0.0284 
     31 CB         26.2299  -49.6241  -60.2947 C.3       8 UNK        -0.1977 
     32 N          26.1497  -49.6069  -57.8463 N.am      8 UNK        -0.4342 
     33 C          25.5639  -50.3053  -56.8623 C.2       8 UNK         0.5039 
     34 O          24.3737  -50.6234  -56.8625 O.2       8 UNK        -0.5547 
     35 CA         26.4468  -50.7475  -55.6785 C.3       7 UNK         0.0281 
     36 CB         26.8660  -52.2172  -55.8434 C.3       7 UNK        -0.1963 
     37 N          27.6419  -49.9148  -55.5292 N.am      7 UNK        -0.4444 
     38 C          27.6327  -48.6867  -54.9892 C.2       7 UNK         0.5104 
     39 O          26.6591  -48.2210  -54.3974 O.2       7 UNK        -0.5100 
     40 CA         28.9028  -47.8232  -55.1340 C.3       6 UNK         0.0396 
     41 CB         29.5275  -47.5217  -53.7623 C.3       6 UNK        -0.1801 
     42 N          29.9300  -48.3994  -56.0051 N.am      6 UNK        -0.4747 
     43 C          29.8393  -48.5508  -57.3355 C.2       6 UNK         0.5012 
     44 O          28.8358  -48.2575  -57.9873 O.2       6 UNK        -0.5003 
     45 CA         31.0477  -49.2014  -58.0462 C.3       5 UNK         0.0782 
     46 C46        32.0495  -48.1501  -58.5877 C.3       11 UNK        -0.0868 
     47 S47        32.7962  -47.0933  -57.2906 S.3       11 UNK        -0.2515 
     48 C48        32.1355  -45.4648  -57.7642 C.3       11 UNK         0.0199 
     49 N          31.7247  -50.2066  -57.2211 N.am      5 UNK        -0.4607 
     50 C          31.1565  -51.3109  -56.7180 C.2       4 UNK         0.5031 
     51 O          29.9826  -51.6214  -56.9182 O.2       4 UNK        -0.5119 
     52 CA         32.0291  -52.2082  -55.8216 C.3       4 UNK         0.0263 
     53 CB         32.5280  -53.4278  -56.6131 C.3       4 UNK        -0.1967 
     54 N          33.1771  -51.5268  -55.2085 N.am      4 UNK        -0.4237 
     55 C          33.0908  -50.5136  -54.3362 C.2       3 UNK         0.4908 
     56 O          32.0275  -49.9916  -53.9918 O.2       3 UNK        -0.5102 
     57 CA         34.4153  -49.9775  -53.7838 C.3       3 UNK         0.0241 
     58 CB         35.0416  -48.9511  -54.7443 C.3       3 UNK        -0.1971 
     59 N          34.1523  -49.3436  -52.4985 N.am      3 UNK        -0.4139 
     60 C          34.9909  -49.2659  -51.4626 C.2       2 UNK         0.5016 
     61 O          36.1441  -49.7017  -51.4828 O.2       2 UNK        -0.5319 
     62 CA         34.4474  -48.5609  -50.2018 C.3       2 UNK         0.0286 
     63 CB         35.4011  -48.6825  -48.9981 C.3       2 UNK        -0.1963 
     64 N          34.1707  -47.1406  -50.4427 N.am      2 UNK        -0.4790 
     65 C          33.1256  -46.6615  -51.1312 C.2       1 UNK         0.5024 
     66 O          32.2569  -47.3836  -51.6283 O.2       1 UNK        -0.4888 
     67 H67        29.3153  -44.5865  -52.6311 H         1 UNK         0.0892 
     68 H68        28.5168  -44.8387  -51.0842 H         1 UNK         0.0892 
     69 H69        29.1297  -43.2349  -51.5016 H         1 UNK         0.0892 
     70 H70        31.6257  -44.5383  -52.7280 H         1 UNK         0.3107 
     71 H71        33.2663  -44.6837  -50.3352 H         1 UNK         0.0773 
     72 H72        34.0150  -45.0809  -53.2828 H         1 UNK         0.0680 
     73 H73        35.1530  -44.9788  -51.9662 H         1 UNK         0.0680 
     74 H74        35.1210  -42.9570  -54.6214 H         1 UNK         0.0650 
     75 H75        34.2639  -41.4557  -54.3742 H         1 UNK         0.0650 
     76 H76        34.0953  -44.3456  -56.2287 H         1 UNK         0.1397 
     77 H77        29.8348  -44.4818  -56.6770 H         1 UNK         0.1363 
     78 H78        31.5888  -41.8995  -53.7459 H         1 UNK         0.1355 
     79 H79        28.5444  -43.5392  -54.6135 H         1 UNK         0.0707 
     80 H80        29.1846  -42.0866  -53.8730 H         1 UNK         0.0707 
     81 H81        26.5922  -41.2415  -54.6549 H         1 UNK         0.1034 
     82 H82        26.1944  -40.8850  -56.3129 H         1 UNK         0.1034 
     83 H83        26.3556  -43.6418  -55.0121 H         1 UNK         0.0482 
     84 H84        23.0472  -42.7523  -54.0821 H         1 UNK         0.3460 
     85 H85        24.6807  -42.9649  -53.5119 H         1 UNK         0.3460 
     86 H86        26.4149  -43.0389  -57.8702 H         1 UNK         0.2989 
     87 H87        25.9225  -44.9901  -59.3908 H         1 UNK         0.0559 
     88 H88        28.7778  -45.5386  -58.4103 H         1 UNK         0.0848 
     89 H89        28.2050  -43.9849  -59.0028 H         1 UNK         0.0848 
     90 H90        28.2845  -45.3597  -60.0886 H         1 UNK         0.0848 
     91 H91        27.3439  -47.4366  -58.5590 H         1 UNK         0.3144 
     92 H92        24.4559  -49.5144  -59.1020 H         1 UNK         0.0727 
     93 H93        26.2345  -50.7133  -60.3389 H         1 UNK         0.0790 
     94 H94        27.2669  -49.2859  -60.3068 H         1 UNK         0.0790 
     95 H95        25.7577  -49.2651  -61.2103 H         1 UNK         0.0790 
     96 H96        27.1250  -49.3505  -57.7422 H         1 UNK         0.3215 
     97 H97        25.8469  -50.6675  -54.7691 H         1 UNK         0.0863 
     98 H98        27.4934  -52.5489  -55.0159 H         1 UNK         0.0808 
     99 H99        27.4181  -52.3788  -56.7699 H         1 UNK         0.0808 
    100 H100       25.9919  -52.8693  -55.8699 H         1 UNK         0.0808 
    101 H101       28.4935  -50.2541  -55.9614 H         1 UNK         0.3118 
    102 H102       28.5909  -46.8747  -55.5765 H         1 UNK         0.0546 
    103 H103       28.8046  -47.0495  -53.0962 H         1 UNK         0.0828 
    104 H104       30.3768  -46.8438  -53.8522 H         1 UNK         0.0828 
    105 H105       29.8775  -48.4297  -53.2698 H         1 UNK         0.0828 
    106 H106       30.7769  -48.7152  -55.5472 H         1 UNK         0.3005 
    107 H107       30.6376  -49.7358  -58.9064 H         1 UNK         0.1257 
    108 H108       31.5661  -47.5342  -59.3478 H         1 UNK         0.0775 
    109 H109       32.8619  -48.6560  -59.1119 H         1 UNK         0.0775 
    110 H110       32.7975  -45.0144  -58.5051 H         1 UNK         0.0840 
    111 H111       31.1708  -45.5879  -58.2566 H         1 UNK         0.0840 
    112 H112       32.6890  -50.0163  -56.9933 H         1 UNK         0.2987 
    113 H113       31.3889  -52.5653  -55.0119 H         1 UNK         0.0785 
    114 H114       31.6937  -53.9725  -57.0580 H         1 UNK         0.0798 
    115 H115       33.0617  -54.1283  -55.9706 H         1 UNK         0.0798 
    116 H116       33.1965  -53.1372  -57.4246 H         1 UNK         0.0798 
    117 H117       34.0914  -51.8843  -55.4478 H         1 UNK         0.3079 
    118 H118       35.0985  -50.8180  -53.6434 H         1 UNK         0.0794 
    119 H119       34.3962  -48.0816  -54.8759 H         1 UNK         0.0786 
    120 H120       35.2164  -49.3833  -55.7303 H         1 UNK         0.0786 
    121 H121       36.0028  -48.5969  -54.3715 H         1 UNK         0.0786 
    122 H122       33.2183  -48.9496  -52.4015 H         1 UNK         0.3032 
    123 H123       33.5124  -49.0592  -49.9340 H         1 UNK         0.1094 
    124 H124       36.3564  -48.1906  -49.1859 H         1 UNK         0.0794 
    125 H125       34.9664  -48.2411  -48.1010 H         1 UNK         0.0794 
    126 H126       35.6120  -49.7286  -48.7714 H         1 UNK         0.0794 
    127 H127       34.8574  -46.4888  -50.0901 H         1 UNK         0.3016 
@<TRIPOS>BOND
     1    1    2 1    
     2    1   67 1    
     3    1   68 1    
     4    1   69 1    
     5    2    3 2    
     6    2    4 am   BACKBONE|DICT|INTERRES
     7    4    5 1    
     8    4   70 1    
     9    5    6 1    
    10    5   65 1    
    11    5   71 1    
    12    6    7 1    
    13    6   72 1    
    14    6   73 1    
    15    7    8 1    
    16    8    9 1    
    17    8   74 1    
    18    8   75 1    
    19    9   10 ar   
    20    9   14 ar   
    21   10   11 ar   
    22   10   76 1    
    23   11   12 ar   
    24   11   48 1    
    25   12   13 ar   
    26   12   77 1    
    27   13   14 ar   
    28   13   15 1    
    29   14   78 1    
    30   15   16 1    
    31   15   79 1    
    32   15   80 1    
    33   16   17 1    
    34   17   18 1    
    35   17   81 1    
    36   17   82 1    
    37   18   19 1    
    38   18   22 1    
    39   18   83 1    
    40   19   20 am   BACKBONE|DICT|INTERRES
    41   19   21 2    
    42   20   84 1    
    43   20   85 1    
    44   22   23 am   BACKBONE|DICT|INTERRES
    45   22   86 1    
    46   23   24 2    
    47   23   25 1    
    48   25   26 1    
    49   25   27 1    
    50   25   87 1    
    51   26   88 1    
    52   26   89 1    
    53   26   90 1    
    54   27   28 am   BACKBONE|DICT|INTERRES
    55   27   91 1    
    56   28   29 2    
    57   28   30 1    
    58   30   31 1    
    59   30   32 1    
    60   30   92 1    
    61   31   93 1    
    62   31   94 1    
    63   31   95 1    
    64   32   33 am   BACKBONE|DICT|INTERRES
    65   32   96 1    
    66   33   34 2    
    67   33   35 1    
    68   35   36 1    
    69   35   37 1    
    70   35   97 1    
    71   36   98 1    
    72   36   99 1    
    73   36  100 1    
    74   37   38 am   BACKBONE|DICT|INTERRES
    75   37  101 1    
    76   38   39 2    
    77   38   40 1    
    78   40   41 1    
    79   40   42 1    
    80   40  102 1    
    81   41  103 1    
    82   41  104 1    
    83   41  105 1    
    84   42   43 am   BACKBONE|DICT|INTERRES
    85   42  106 1    
    86   43   44 2    
    87   43   45 1    
    88   45   46 1    
    89   45   49 1    
    90   45  107 1    
    91   46   47 1    
    92   46  108 1    
    93   46  109 1    
    94   47   48 1    
    95   48  110 1    
    96   48  111 1    
    97   49   50 am   BACKBONE|DICT|INTERRES
    98   49  112 1    
    99   50   51 2    
   100   50   52 1    
   101   52   53 1    
   102   52   54 1    
   103   52  113 1    
   104   53  114 1    
   105   53  115 1    
   106   53  116 1    
   107   54   55 am   BACKBONE|DICT|INTERRES
   108   54  117 1    
   109   55   56 2    
   110   55   57 1    
   111   57   58 1    
   112   57   59 1    
   113   57  118 1    
   114   58  119 1    
   115   58  120 1    
   116   58  121 1    
   117   59   60 am   BACKBONE|DICT|INTERRES
   118   59  122 1    
   119   60   61 2    
   120   60   62 1    
   121   62   63 1    
   122   62   64 1    
   123   62  123 1    
   124   63  124 1    
   125   63  125 1    
   126   63  126 1    
   127   64   65 am   BACKBONE|DICT|INTERRES
   128   64  127 1    
   129   65   66 2    
@<TRIPOS>SUBSTRUCTURE
     1 UNK         1 GROUP             0       ****    0 ROOT    
