@<TRIPOS>MOLECULE
3R134
127   129    1
SMALL
USER_CHARGES


@<TRIPOS>ATOM
      1 CA         27.7883  -43.8819  -50.9937 C.3       0 UNK        -0.1968 
      2 C          29.0598  -44.5813  -51.4490 C.2       0 UNK         0.4852 
      3 O          28.9983  -45.4613  -52.3082 O.2       0 UNK        -0.5359 
      4 N          30.2053  -44.2133  -50.8563 N.am      1 UNK        -0.4300 
      5 CA         31.5700  -44.7107  -51.1080 C.3       1 UNK         0.0863 
      6 C6         32.0614  -44.5144  -52.5674 C.3       11 UNK        -0.0953 
      7 S7         32.0956  -42.7563  -53.0436 S.3       11 UNK        -0.2369 
      8 C8         33.4055  -42.7495  -54.3138 C.3       11 UNK         0.0226 
      9 C9         33.0075  -43.4695  -55.5992 C.ar      11 UNK        -0.0699 
     10 C10        33.9003  -44.3497  -56.2179 C.ar      11 UNK        -0.0804 
     11 C11        33.5685  -44.9684  -57.4280 C.ar      11 UNK        -0.0871 
     12 C12        32.3090  -44.7414  -57.9953 C.ar      11 UNK        -0.1008 
     13 C13        31.4094  -43.8540  -57.3926 C.ar      11 UNK        -0.0735 
     14 C14        31.7767  -43.2092  -56.2084 C.ar      11 UNK        -0.0945 
     15 C15        30.0705  -43.5364  -58.0501 C.3       11 UNK         0.0169 
     16 S16        28.6696  -44.3851  -57.2511 S.3       11 UNK        -0.2669 
     17 C17        28.4788  -43.4294  -55.7013 C.3       11 UNK        -0.0850 
     18 CA         27.0617  -43.5229  -55.0802 C.3       10 UNK         0.0855 
     19 C          25.9995  -42.7064  -55.8773 C.2       10 UNK         0.5543 
     20 N          24.8878  -43.2862  -56.3164 N.am      10 UNK        -0.7343 
     21 O          26.1830  -41.5100  -56.0877 O.2       10 UNK        -0.5027 
     22 N          26.7088  -44.9210  -54.8170 N.am      10 UNK        -0.4495 
     23 C          25.7980  -45.3567  -53.9413 C.2       10 UNK         0.4903 
     24 O          25.1916  -44.6293  -53.1534 O.2       10 UNK        -0.4860 
     25 CA         25.5030  -46.8677  -54.0041 C.3       9 UNK         0.0227 
     26 CB         24.2247  -47.2703  -53.2388 C.3       9 UNK        -0.1964 
     27 N          25.4746  -47.3619  -55.3899 N.am      9 UNK        -0.4231 
     28 C          24.6508  -46.9616  -56.3751 C.2       9 UNK         0.5014 
     29 O          23.7427  -46.1466  -56.2055 O.2       9 UNK        -0.5270 
     30 CA         24.8991  -47.4913  -57.8038 C.3       8 UNK         0.0284 
     31 CB         25.0608  -46.3221  -58.7928 C.3       8 UNK        -0.1977 
     32 N          26.0764  -48.3532  -57.9155 N.am      8 UNK        -0.4342 
     33 C          26.1329  -49.6467  -57.5741 C.2       8 UNK         0.5039 
     34 O          25.1582  -50.2994  -57.2008 O.2       8 UNK        -0.5547 
     35 CA         27.5206  -50.3145  -57.6204 C.3       7 UNK         0.0281 
     36 CB         27.6839  -51.1360  -58.9090 C.3       7 UNK        -0.1963 
     37 N          28.6443  -49.3761  -57.5045 N.am      7 UNK        -0.4444 
     38 C          28.8985  -48.5823  -56.4545 C.2       7 UNK         0.5104 
     39 O          28.1679  -48.5157  -55.4650 O.2       7 UNK        -0.5100 
     40 CA         30.1604  -47.7077  -56.5504 C.3       6 UNK         0.0396 
     41 CB         30.4959  -46.9923  -55.2294 C.3       6 UNK        -0.1801 
     42 N          31.3197  -48.4856  -56.9848 N.am      6 UNK        -0.4747 
     43 C          31.6771  -48.6961  -58.2596 C.2       6 UNK         0.5012 
     44 O          31.0062  -48.3123  -59.2184 O.2       6 UNK        -0.5003 
     45 CA         32.9832  -49.4753  -58.5191 C.3       5 UNK         0.0782 
     46 C46        34.1418  -48.5201  -58.8960 C.3       11 UNK        -0.0868 
     47 S47        34.7442  -47.4960  -57.5015 S.3       11 UNK        -0.2515 
     48 C48        34.6109  -45.8038  -58.1595 C.3       11 UNK         0.0199 
     49 N          33.3531  -50.3507  -57.4050 N.am      5 UNK        -0.4607 
     50 C          32.7598  -51.5126  -57.1058 C.2       4 UNK         0.5031 
     51 O          31.8801  -52.0289  -57.7947 O.2       4 UNK        -0.5119 
     52 CA         33.2113  -52.2030  -55.8037 C.3       4 UNK         0.0263 
     53 CB         34.3165  -53.2305  -56.0963 C.3       4 UNK        -0.1967 
     54 N          33.6745  -51.2692  -54.7667 N.am      4 UNK        -0.4237 
     55 C          32.9074  -50.3254  -54.2041 C.2       3 UNK         0.4908 
     56 O          31.7275  -50.1399  -54.5076 O.2       3 UNK        -0.5102 
     57 CA         33.5886  -49.3927  -53.1908 C.3       3 UNK         0.0241 
     58 CB         34.3847  -48.2969  -53.9196 C.3       3 UNK        -0.1971 
     59 N          32.5964  -48.7454  -52.3356 N.am      3 UNK        -0.4139 
     60 C          31.9644  -49.3202  -51.3053 C.2       2 UNK         0.5016 
     61 O          32.2290  -50.4504  -50.8901 O.2       2 UNK        -0.5319 
     62 CA         30.8347  -48.5047  -50.6398 C.3       2 UNK         0.0286 
     63 CB         30.7634  -48.7334  -49.1149 C.3       2 UNK        -0.1963 
     64 N          30.8577  -47.0669  -50.9538 N.am      2 UNK        -0.4790 
     65 C          31.7979  -46.1638  -50.6391 C.2       1 UNK         0.5024 
     66 O          32.8215  -46.4340  -50.0105 O.2       1 UNK        -0.4888 
     67 H67        27.0055  -44.6149  -50.7999 H         1 UNK         0.0892 
     68 H68        27.9435  -43.3049  -50.0824 H         1 UNK         0.0892 
     69 H69        27.4330  -43.2049  -51.7689 H         1 UNK         0.0892 
     70 H70        30.1576  -43.5010  -50.1412 H         1 UNK         0.3107 
     71 H71        32.2114  -44.0984  -50.4713 H         1 UNK         0.0773 
     72 H72        31.4288  -45.0510  -53.2745 H         1 UNK         0.0680 
     73 H73        33.0676  -44.9211  -52.6871 H         1 UNK         0.0680 
     74 H74        34.3130  -43.1812  -53.8889 H         1 UNK         0.0650 
     75 H75        33.6434  -41.7139  -54.5593 H         1 UNK         0.0650 
     76 H76        34.8725  -44.5271  -55.7784 H         1 UNK         0.1397 
     77 H77        32.0455  -45.2229  -58.9274 H         1 UNK         0.1363 
     78 H78        31.1054  -42.4940  -55.7566 H         1 UNK         0.1355 
     79 H79        29.8989  -42.4590  -58.0451 H         1 UNK         0.0707 
     80 H80        30.0935  -43.8307  -59.1004 H         1 UNK         0.0707 
     81 H81        29.2079  -43.8051  -54.9809 H         1 UNK         0.1034 
     82 H82        28.7445  -42.3855  -55.8770 H         1 UNK         0.1034 
     83 H83        27.1173  -43.0274  -54.1102 H         1 UNK         0.0482 
     84 H84        24.6914  -44.2609  -56.1274 H         1 UNK         0.3460 
     85 H85        24.2162  -42.7321  -56.8228 H         1 UNK         0.3460 
     86 H86        27.1505  -45.5947  -55.4243 H         1 UNK         0.2989 
     87 H87        26.3473  -47.3618  -53.5207 H         1 UNK         0.0559 
     88 H88        23.3407  -46.7641  -53.6277 H         1 UNK         0.0848 
     89 H89        24.3064  -47.0120  -52.1823 H         1 UNK         0.0848 
     90 H90        24.0495  -48.3444  -53.2968 H         1 UNK         0.0848 
     91 H91        26.2314  -47.9980  -55.6234 H         1 UNK         0.3144 
     92 H92        24.0159  -48.0645  -58.0930 H         1 UNK         0.0727 
     93 H93        25.9084  -45.6862  -58.5324 H         1 UNK         0.0790 
     94 H94        24.1725  -45.6889  -58.8033 H         1 UNK         0.0790 
     95 H95        25.2088  -46.6801  -59.8119 H         1 UNK         0.0790 
     96 H96        26.9322  -47.9109  -58.2184 H         1 UNK         0.3215 
     97 H97        27.5769  -50.9963  -56.7691 H         1 UNK         0.0863 
     98 H98        28.6236  -51.6894  -58.9103 H         1 UNK         0.0808 
     99 H99        27.6645  -50.5030  -59.7972 H         1 UNK         0.0808 
    100 H100       26.8799  -51.8664  -59.0112 H         1 UNK         0.0808 
    101 H101       29.2953  -49.3381  -58.2796 H         1 UNK         0.3118 
    102 H102       29.9591  -46.9380  -57.2960 H         1 UNK         0.0546 
    103 H103       31.3871  -46.3732  -55.3341 H         1 UNK         0.0828 
    104 H104       30.6620  -47.6976  -54.4158 H         1 UNK         0.0828 
    105 H105       29.6819  -46.3342  -54.9234 H         1 UNK         0.0828 
    106 H106       31.8442  -48.9412  -56.2478 H         1 UNK         0.3005 
    107 H107       32.7881  -50.1105  -59.3867 H         1 UNK         0.1257 
    108 H108       34.9877  -49.1076  -59.2561 H         1 UNK         0.0775 
    109 H109       33.8504  -47.8935  -59.7404 H         1 UNK         0.0775 
    110 H110       35.5857  -45.3241  -58.0586 H         1 UNK         0.0840 
    111 H111       34.4056  -45.8109  -59.2302 H         1 UNK         0.0840 
    112 H112       34.0762  -50.0002  -56.7940 H         1 UNK         0.2987 
    113 H113       32.3455  -52.7358  -55.4044 H         1 UNK         0.0785 
    114 H114       35.2216  -52.7545  -56.4756 H         1 UNK         0.0798 
    115 H115       33.9893  -53.9521  -56.8465 H         1 UNK         0.0798 
    116 H116       34.5816  -53.7950  -55.2021 H         1 UNK         0.0798 
    117 H117       34.6380  -51.3559  -54.4750 H         1 UNK         0.3079 
    118 H118       34.2678  -49.9789  -52.5681 H         1 UNK         0.0794 
    119 H119       33.7446  -47.6901  -54.5624 H         1 UNK         0.0786 
    120 H120       35.1658  -48.7260  -54.5482 H         1 UNK         0.0786 
    121 H121       34.8752  -47.6274  -53.2125 H         1 UNK         0.0786 
    122 H122       32.2822  -47.8307  -52.6191 H         1 UNK         0.3032 
    123 H123       29.9085  -48.8881  -51.0714 H         1 UNK         0.1094 
    124 H124       29.9486  -48.1654  -48.6661 H         1 UNK         0.0794 
    125 H125       30.5874  -49.7848  -48.8839 H         1 UNK         0.0794 
    126 H126       31.6894  -48.4443  -48.6172 H         1 UNK         0.0794 
    127 H127       30.0670  -46.7129  -51.4932 H         1 UNK         0.3016 
@<TRIPOS>BOND
     1    1    2 1    
     2    1   67 1    
     3    1   68 1    
     4    1   69 1    
     5    2    3 2    
     6    2    4 am   BACKBONE|DICT|INTERRES
     7    4    5 1    
     8    4   70 1    
     9    5    6 1    
    10    5   65 1    
    11    5   71 1    
    12    6    7 1    
    13    6   72 1    
    14    6   73 1    
    15    7    8 1    
    16    8    9 1    
    17    8   74 1    
    18    8   75 1    
    19    9   10 ar   
    20    9   14 ar   
    21   10   11 ar   
    22   10   76 1    
    23   11   12 ar   
    24   11   48 1    
    25   12   13 ar   
    26   12   77 1    
    27   13   14 ar   
    28   13   15 1    
    29   14   78 1    
    30   15   16 1    
    31   15   79 1    
    32   15   80 1    
    33   16   17 1    
    34   17   18 1    
    35   17   81 1    
    36   17   82 1    
    37   18   19 1    
    38   18   22 1    
    39   18   83 1    
    40   19   20 am   BACKBONE|DICT|INTERRES
    41   19   21 2    
    42   20   84 1    
    43   20   85 1    
    44   22   23 am   BACKBONE|DICT|INTERRES
    45   22   86 1    
    46   23   24 2    
    47   23   25 1    
    48   25   26 1    
    49   25   27 1    
    50   25   87 1    
    51   26   88 1    
    52   26   89 1    
    53   26   90 1    
    54   27   28 am   BACKBONE|DICT|INTERRES
    55   27   91 1    
    56   28   29 2    
    57   28   30 1    
    58   30   31 1    
    59   30   32 1    
    60   30   92 1    
    61   31   93 1    
    62   31   94 1    
    63   31   95 1    
    64   32   33 am   BACKBONE|DICT|INTERRES
    65   32   96 1    
    66   33   34 2    
    67   33   35 1    
    68   35   36 1    
    69   35   37 1    
    70   35   97 1    
    71   36   98 1    
    72   36   99 1    
    73   36  100 1    
    74   37   38 am   BACKBONE|DICT|INTERRES
    75   37  101 1    
    76   38   39 2    
    77   38   40 1    
    78   40   41 1    
    79   40   42 1    
    80   40  102 1    
    81   41  103 1    
    82   41  104 1    
    83   41  105 1    
    84   42   43 am   BACKBONE|DICT|INTERRES
    85   42  106 1    
    86   43   44 2    
    87   43   45 1    
    88   45   46 1    
    89   45   49 1    
    90   45  107 1    
    91   46   47 1    
    92   46  108 1    
    93   46  109 1    
    94   47   48 1    
    95   48  110 1    
    96   48  111 1    
    97   49   50 am   BACKBONE|DICT|INTERRES
    98   49  112 1    
    99   50   51 2    
   100   50   52 1    
   101   52   53 1    
   102   52   54 1    
   103   52  113 1    
   104   53  114 1    
   105   53  115 1    
   106   53  116 1    
   107   54   55 am   BACKBONE|DICT|INTERRES
   108   54  117 1    
   109   55   56 2    
   110   55   57 1    
   111   57   58 1    
   112   57   59 1    
   113   57  118 1    
   114   58  119 1    
   115   58  120 1    
   116   58  121 1    
   117   59   60 am   BACKBONE|DICT|INTERRES
   118   59  122 1    
   119   60   61 2    
   120   60   62 1    
   121   62   63 1    
   122   62   64 1    
   123   62  123 1    
   124   63  124 1    
   125   63  125 1    
   126   63  126 1    
   127   64   65 am   BACKBONE|DICT|INTERRES
   128   64  127 1    
   129   65   66 2    
@<TRIPOS>SUBSTRUCTURE
     1 UNK         1 GROUP             0       ****    0 ROOT    
