@<TRIPOS>MOLECULE
3R134
127   129    1
SMALL
USER_CHARGES


@<TRIPOS>ATOM
      1 CA         33.0036  -42.4129  -53.2504 C.3       0 UNK        -0.1968 
      2 C          33.7785  -43.6700  -53.6099 C.2       0 UNK         0.4852 
      3 O          34.9764  -43.7504  -53.3346 O.2       0 UNK        -0.5359 
      4 N          33.1009  -44.6559  -54.2150 N.am      1 UNK        -0.4300 
      5 CA         33.6910  -45.9382  -54.6273 C.3       1 UNK         0.0863 
      6 C6         32.8769  -46.6396  -55.7443 C.3       11 UNK        -0.0953 
      7 S7         32.6348  -45.5899  -57.2189 S.3       11 UNK        -0.2369 
      8 C8         30.8247  -45.4084  -57.2729 C.3       11 UNK         0.0226 
      9 C9         30.2999  -44.6646  -56.0558 C.ar      11 UNK        -0.0699 
     10 C10        29.7507  -45.3756  -54.9882 C.ar      11 UNK        -0.0804 
     11 C11        29.2686  -44.7136  -53.8544 C.ar      11 UNK        -0.0871 
     12 C12        29.3354  -43.3161  -53.8114 C.ar      11 UNK        -0.1008 
     13 C13        29.8837  -42.5896  -54.8741 C.ar      11 UNK        -0.0735 
     14 C14        30.3722  -43.2720  -55.9918 C.ar      11 UNK        -0.0945 
     15 C15        29.9819  -41.0714  -54.7954 C.3       11 UNK         0.0169 
     16 S16        28.4555  -40.2430  -55.3456 S.3       11 UNK        -0.2669 
     17 C17        28.4990  -40.5261  -57.1518 C.3       11 UNK        -0.0850 
     18 CA         27.3324  -41.4113  -57.6675 C.3       10 UNK         0.0855 
     19 C          27.4347  -41.6269  -59.2080 C.2       10 UNK         0.5543 
     20 N          27.5202  -42.8526  -59.7142 N.am      10 UNK        -0.7343 
     21 O          27.4337  -40.6561  -59.9608 O.2       10 UNK        -0.5027 
     22 N          27.1900  -42.6500  -56.8882 N.am      10 UNK        -0.4495 
     23 C          26.0802  -43.3906  -56.8383 C.2       10 UNK         0.4903 
     24 O          25.0147  -43.0886  -57.3805 O.2       10 UNK        -0.4860 
     25 CA         26.1834  -44.6998  -56.0463 C.3       9 UNK         0.0227 
     26 CB         25.4310  -44.5957  -54.7105 C.3       9 UNK        -0.1964 
     27 N          25.6773  -45.8346  -56.8168 N.am      9 UNK        -0.4231 
     28 C          26.2091  -46.2780  -57.9641 C.2       9 UNK         0.5014 
     29 O          27.1918  -45.7749  -58.5176 O.2       9 UNK        -0.5270 
     30 CA         25.5135  -47.4922  -58.6061 C.3       8 UNK         0.0284 
     31 CB         24.8511  -47.0963  -59.9364 C.3       8 UNK        -0.1977 
     32 N          26.4289  -48.6153  -58.8325 N.am      8 UNK        -0.4342 
     33 C          27.1455  -49.2272  -57.8800 C.2       8 UNK         0.5039 
     34 O          27.1329  -48.8940  -56.6925 O.2       8 UNK        -0.5547 
     35 CA         28.0322  -50.4008  -58.3366 C.3       7 UNK         0.0281 
     36 CB         29.2908  -49.8778  -59.0505 C.3       7 UNK        -0.1963 
     37 N          28.4460  -51.2100  -57.1895 N.am      7 UNK        -0.4444 
     38 C          27.6512  -52.0632  -56.5218 C.2       7 UNK         0.5104 
     39 O          26.5518  -52.4382  -56.9314 O.2       7 UNK        -0.5100 
     40 CA         28.1537  -52.5571  -55.1483 C.3       6 UNK         0.0396 
     41 CB         28.8998  -53.8927  -55.2910 C.3       6 UNK        -0.1801 
     42 N          29.0417  -51.5700  -54.5329 N.am      6 UNK        -0.4747 
     43 C          28.6346  -50.4104  -53.9949 C.2       6 UNK         0.5012 
     44 O          27.4862  -50.2461  -53.5824 O.2       6 UNK        -0.5003 
     45 CA         29.6653  -49.2439  -53.9602 C.3       5 UNK         0.0782 
     46 C46        29.4392  -48.2334  -52.7992 C.3       11 UNK        -0.0868 
     47 S47        28.0004  -47.1228  -53.0298 S.3       11 UNK        -0.2515 
     48 C48        28.6823  -45.4661  -52.6581 C.3       11 UNK         0.0199 
     49 N          31.0679  -49.7041  -54.0155 N.am      5 UNK        -0.4607 
     50 C          31.6813  -50.2088  -55.1005 C.2       4 UNK         0.5031 
     51 O          31.1288  -50.2642  -56.1987 O.2       4 UNK        -0.5119 
     52 CA         33.0754  -50.8504  -54.9430 C.3       4 UNK         0.0263 
     53 CB         34.0820  -50.3759  -56.0062 C.3       4 UNK        -0.1967 
     54 N          33.6503  -50.6742  -53.6094 N.am      4 UNK        -0.4237 
     55 C          33.4765  -51.5218  -52.5845 C.2       3 UNK         0.4908 
     56 O          32.8591  -52.5834  -52.6733 O.2       3 UNK        -0.5102 
     57 CA         34.0624  -51.1107  -51.2193 C.3       3 UNK         0.0241 
     58 CB         35.4283  -51.7803  -50.9976 C.3       3 UNK        -0.1971 
     59 N          34.2005  -49.6613  -51.0409 N.am      3 UNK        -0.4139 
     60 C          33.1887  -48.7829  -51.0746 C.2       2 UNK         0.5016 
     61 O          32.0127  -49.1103  -51.2297 O.2       2 UNK        -0.5319 
     62 CA         33.5386  -47.2873  -50.9760 C.3       2 UNK         0.0286 
     63 CB         34.9495  -47.0085  -50.4093 C.3       2 UNK        -0.1963 
     64 N          33.3636  -46.5959  -52.2608 N.am      2 UNK        -0.4790 
     65 C          33.9422  -46.8946  -53.4375 C.2       1 UNK         0.5024 
     66 O          34.6637  -47.8789  -53.6077 O.2       1 UNK        -0.4888 
     67 H67        32.8911  -41.7761  -54.1272 H         1 UNK         0.0892 
     68 H68        32.0150  -42.6590  -52.8651 H         1 UNK         0.0892 
     69 H69        33.5277  -41.8448  -52.4822 H         1 UNK         0.0892 
     70 H70        32.1279  -44.5216  -54.4587 H         1 UNK         0.3107 
     71 H71        34.6767  -45.7208  -55.0450 H         1 UNK         0.0773 
     72 H72        31.9207  -47.0000  -55.3673 H         1 UNK         0.0680 
     73 H73        33.4044  -47.5252  -56.0916 H         1 UNK         0.0680 
     74 H74        30.3622  -46.3937  -57.3556 H         1 UNK         0.0650 
     75 H75        30.5482  -44.8667  -58.1787 H         1 UNK         0.0650 
     76 H76        29.6988  -46.4503  -55.0537 H         1 UNK         0.1397 
     77 H77        28.9660  -42.7876  -52.9426 H         1 UNK         0.1363 
     78 H78        30.8187  -42.7257  -56.8114 H         1 UNK         0.1355 
     79 H79        30.1857  -40.7736  -53.7657 H         1 UNK         0.0707 
     80 H80        30.8263  -40.7094  -55.3841 H         1 UNK         0.0707 
     81 H81        29.4603  -40.9518  -57.4396 H         1 UNK         0.1034 
     82 H82        28.4612  -39.5477  -57.6347 H         1 UNK         0.1034 
     83 H83        26.4154  -40.8388  -57.5150 H         1 UNK         0.0482 
     84 H84        27.4949  -43.6695  -59.1168 H         1 UNK         0.3460 
     85 H85        27.5839  -42.9669  -60.7130 H         1 UNK         0.3460 
     86 H86        28.0166  -42.9615  -56.3964 H         1 UNK         0.2989 
     87 H87        27.2318  -44.9017  -55.8320 H         1 UNK         0.0559 
     88 H88        24.3671  -44.4059  -54.8580 H         1 UNK         0.0848 
     89 H89        25.8285  -43.7793  -54.1059 H         1 UNK         0.0848 
     90 H90        25.5337  -45.5089  -54.1241 H         1 UNK         0.0848 
     91 H91        24.8631  -46.3026  -56.4471 H         1 UNK         0.3144 
     92 H92        24.7312  -47.8467  -57.9316 H         1 UNK         0.0727 
     93 H93        24.2880  -47.9257  -60.3649 H         1 UNK         0.0790 
     94 H94        25.5880  -46.7721  -60.6726 H         1 UNK         0.0790 
     95 H95        24.1518  -46.2713  -59.7926 H         1 UNK         0.0790 
     96 H96        26.5272  -48.9272  -59.7878 H         1 UNK         0.3215 
     97 H97        27.4621  -51.0286  -59.0249 H         1 UNK         0.0863 
     98 H98        29.8656  -49.2051  -58.4120 H         1 UNK         0.0808 
     99 H99        29.0319  -49.3247  -59.9540 H         1 UNK         0.0808 
    100 H100       29.9470  -50.6955  -59.3493 H         1 UNK         0.0808 
    101 H101       29.3274  -50.9390  -56.7664 H         1 UNK         0.3118 
    102 H102       27.2873  -52.7112  -54.5017 H         1 UNK         0.0546 
    103 H103       29.2325  -54.2666  -54.3225 H         1 UNK         0.0828 
    104 H104       29.7754  -53.8022  -55.9352 H         1 UNK         0.0828 
    105 H105       28.2520  -54.6546  -55.7268 H         1 UNK         0.0828 
    106 H106       30.0119  -51.6235  -54.8075 H         1 UNK         0.3005 
    107 H107       29.4824  -48.7050  -54.8921 H         1 UNK         0.1257 
    108 H108       30.3246  -47.6050  -52.6933 H         1 UNK         0.0775 
    109 H109       29.3326  -48.7566  -51.8474 H         1 UNK         0.0775 
    110 H110       27.8683  -44.8743  -52.2366 H         1 UNK         0.0840 
    111 H111       29.4364  -45.5439  -51.8740 H         1 UNK         0.0840 
    112 H112       31.5541  -49.7096  -53.1241 H         1 UNK         0.2987 
    113 H113       32.9178  -51.9158  -55.1239 H         1 UNK         0.0785 
    114 H114       34.9208  -51.0686  -56.0752 H         1 UNK         0.0798 
    115 H115       33.6317  -50.3228  -56.9984 H         1 UNK         0.0798 
    116 H116       34.4967  -49.3973  -55.7760 H         1 UNK         0.0798 
    117 H117       34.1501  -49.8038  -53.4491 H         1 UNK         0.3079 
    118 H118       33.3746  -51.4713  -50.4516 H         1 UNK         0.0794 
    119 H119       35.8145  -51.5750  -49.9989 H         1 UNK         0.0786 
    120 H120       36.1682  -51.4379  -51.7223 H         1 UNK         0.0786 
    121 H121       35.3525  -52.8642  -51.0965 H         1 UNK         0.0786 
    122 H122       35.1389  -49.3016  -50.9421 H         1 UNK         0.3032 
    123 H123       32.8139  -46.8562  -50.2831 H         1 UNK         0.1094 
    124 H124       35.7427  -47.3507  -51.0749 H         1 UNK         0.0794 
    125 H125       35.0984  -45.9399  -50.2522 H         1 UNK         0.0794 
    126 H126       35.0908  -47.4934  -49.4422 H         1 UNK         0.0794 
    127 H127       32.7656  -45.7825  -52.2379 H         1 UNK         0.3016 
@<TRIPOS>BOND
     1    1    2 1    
     2    1   67 1    
     3    1   68 1    
     4    1   69 1    
     5    2    3 2    
     6    2    4 am   BACKBONE|DICT|INTERRES
     7    4    5 1    
     8    4   70 1    
     9    5    6 1    
    10    5   65 1    
    11    5   71 1    
    12    6    7 1    
    13    6   72 1    
    14    6   73 1    
    15    7    8 1    
    16    8    9 1    
    17    8   74 1    
    18    8   75 1    
    19    9   10 ar   
    20    9   14 ar   
    21   10   11 ar   
    22   10   76 1    
    23   11   12 ar   
    24   11   48 1    
    25   12   13 ar   
    26   12   77 1    
    27   13   14 ar   
    28   13   15 1    
    29   14   78 1    
    30   15   16 1    
    31   15   79 1    
    32   15   80 1    
    33   16   17 1    
    34   17   18 1    
    35   17   81 1    
    36   17   82 1    
    37   18   19 1    
    38   18   22 1    
    39   18   83 1    
    40   19   20 am   BACKBONE|DICT|INTERRES
    41   19   21 2    
    42   20   84 1    
    43   20   85 1    
    44   22   23 am   BACKBONE|DICT|INTERRES
    45   22   86 1    
    46   23   24 2    
    47   23   25 1    
    48   25   26 1    
    49   25   27 1    
    50   25   87 1    
    51   26   88 1    
    52   26   89 1    
    53   26   90 1    
    54   27   28 am   BACKBONE|DICT|INTERRES
    55   27   91 1    
    56   28   29 2    
    57   28   30 1    
    58   30   31 1    
    59   30   32 1    
    60   30   92 1    
    61   31   93 1    
    62   31   94 1    
    63   31   95 1    
    64   32   33 am   BACKBONE|DICT|INTERRES
    65   32   96 1    
    66   33   34 2    
    67   33   35 1    
    68   35   36 1    
    69   35   37 1    
    70   35   97 1    
    71   36   98 1    
    72   36   99 1    
    73   36  100 1    
    74   37   38 am   BACKBONE|DICT|INTERRES
    75   37  101 1    
    76   38   39 2    
    77   38   40 1    
    78   40   41 1    
    79   40   42 1    
    80   40  102 1    
    81   41  103 1    
    82   41  104 1    
    83   41  105 1    
    84   42   43 am   BACKBONE|DICT|INTERRES
    85   42  106 1    
    86   43   44 2    
    87   43   45 1    
    88   45   46 1    
    89   45   49 1    
    90   45  107 1    
    91   46   47 1    
    92   46  108 1    
    93   46  109 1    
    94   47   48 1    
    95   48  110 1    
    96   48  111 1    
    97   49   50 am   BACKBONE|DICT|INTERRES
    98   49  112 1    
    99   50   51 2    
   100   50   52 1    
   101   52   53 1    
   102   52   54 1    
   103   52  113 1    
   104   53  114 1    
   105   53  115 1    
   106   53  116 1    
   107   54   55 am   BACKBONE|DICT|INTERRES
   108   54  117 1    
   109   55   56 2    
   110   55   57 1    
   111   57   58 1    
   112   57   59 1    
   113   57  118 1    
   114   58  119 1    
   115   58  120 1    
   116   58  121 1    
   117   59   60 am   BACKBONE|DICT|INTERRES
   118   59  122 1    
   119   60   61 2    
   120   60   62 1    
   121   62   63 1    
   122   62   64 1    
   123   62  123 1    
   124   63  124 1    
   125   63  125 1    
   126   63  126 1    
   127   64   65 am   BACKBONE|DICT|INTERRES
   128   64  127 1    
   129   65   66 2    
@<TRIPOS>SUBSTRUCTURE
     1 UNK         1 GROUP             0       ****    0 ROOT    
