@<TRIPOS>MOLECULE
3R134
127   129    1
SMALL
USER_CHARGES


@<TRIPOS>ATOM
      1 CA         32.8660  -42.2955  -47.7524 C.3       0 UNK        -0.1968 
      2 C          32.9578  -42.5121  -49.2556 C.2       0 UNK         0.4852 
      3 O          32.1234  -41.9924  -49.9978 O.2       0 UNK        -0.5359 
      4 N          33.9541  -43.2881  -49.7064 N.am      1 UNK        -0.4300 
      5 CA         34.2725  -43.6386  -51.1005 C.3       1 UNK         0.0863 
      6 C6         34.5266  -42.3993  -52.0035 C.3       11 UNK        -0.0953 
      7 S7         35.7561  -42.7263  -53.3108 S.3       11 UNK        -0.2369 
      8 C8         34.8696  -42.2142  -54.8171 C.3       11 UNK         0.0226 
      9 C9         33.8075  -43.2187  -55.2428 C.ar      11 UNK        -0.0699 
     10 C10        34.1855  -44.4457  -55.7962 C.ar      11 UNK        -0.0804 
     11 C11        33.2185  -45.3629  -56.2166 C.ar      11 UNK        -0.0871 
     12 C12        31.8644  -45.0466  -56.0739 C.ar      11 UNK        -0.1008 
     13 C13        31.4672  -43.8104  -55.5449 C.ar      11 UNK        -0.0735 
     14 C14        32.4493  -42.9084  -55.1216 C.ar      11 UNK        -0.0945 
     15 C15        29.9949  -43.4272  -55.3864 C.3       11 UNK         0.0169 
     16 S16        28.8742  -44.2079  -56.5948 S.3       11 UNK        -0.2669 
     17 C17        27.2547  -43.8649  -55.8303 C.3       11 UNK        -0.0850 
     18 CA         26.8463  -44.9127  -54.7592 C.3       10 UNK         0.0855 
     19 C          25.4757  -44.5326  -54.1243 C.2       10 UNK         0.5543 
     20 N          24.4054  -45.2918  -54.3325 N.am      10 UNK        -0.7343 
     21 O          25.3860  -43.5251  -53.4276 O.2       10 UNK        -0.5027 
     22 N          26.9173  -46.2889  -55.2729 N.am      10 UNK        -0.4495 
     23 C          26.9051  -47.3959  -54.5179 C.2       10 UNK         0.4903 
     24 O          26.9876  -47.3810  -53.2888 O.2       10 UNK        -0.4860 
     25 CA         26.7599  -48.7435  -55.2589 C.3       9 UNK         0.0227 
     26 CB         26.0055  -49.7981  -54.4239 C.3       9 UNK        -0.1964 
     27 N          26.1810  -48.6346  -56.6057 N.am      9 UNK        -0.4231 
     28 C          24.9815  -48.1319  -56.9449 C.2       9 UNK         0.5014 
     29 O          24.1717  -47.6978  -56.1238 O.2       9 UNK        -0.5270 
     30 CA         24.6432  -48.0217  -58.4456 C.3       8 UNK         0.0284 
     31 CB         24.4757  -46.5450  -58.8465 C.3       8 UNK        -0.1977 
     32 N          25.6519  -48.6294  -59.3177 N.am      8 UNK        -0.4342 
     33 C          25.7418  -49.9362  -59.5976 C.2       8 UNK         0.5039 
     34 O          24.9300  -50.7777  -59.2117 O.2       8 UNK        -0.5547 
     35 CA         26.9636  -50.3834  -60.4236 C.3       7 UNK         0.0281 
     36 CB         26.6121  -50.4316  -61.9196 C.3       7 UNK        -0.1963 
     37 N          28.1595  -49.5498  -60.2294 N.am      7 UNK        -0.4444 
     38 C          28.8027  -49.4003  -59.0635 C.2       7 UNK         0.5104 
     39 O          28.4222  -49.9027  -58.0040 O.2       7 UNK        -0.5100 
     40 CA         30.0336  -48.4865  -59.0636 C.3       6 UNK         0.0396 
     41 CB         29.6301  -47.0650  -58.6466 C.3       6 UNK        -0.1801 
     42 N          30.9990  -49.0042  -58.0987 N.am      6 UNK        -0.4747 
     43 C          32.1171  -49.6758  -58.4066 C.2       6 UNK         0.5012 
     44 O          32.5500  -49.7981  -59.5533 O.2       6 UNK        -0.5003 
     45 CA         32.8699  -50.3512  -57.2389 C.3       5 UNK         0.0782 
     46 C46        34.0412  -49.4719  -56.7231 C.3       11 UNK        -0.0868 
     47 S47        33.5344  -48.0586  -55.6743 S.3       11 UNK        -0.2515 
     48 C48        33.6327  -46.6805  -56.8559 C.3       11 UNK         0.0199 
     49 N          31.9646  -50.7423  -56.1558 N.am      5 UNK        -0.4607 
     50 C          30.9921  -51.6597  -56.2312 C.2       4 UNK         0.5031 
     51 O          30.8791  -52.4378  -57.1791 O.2       4 UNK        -0.5119 
     52 CA         29.9633  -51.7148  -55.0759 C.3       4 UNK         0.0263 
     53 CB         29.6721  -53.1652  -54.6505 C.3       4 UNK        -0.1967 
     54 N          30.3126  -50.9346  -53.8788 N.am      4 UNK        -0.4237 
     55 C          30.3932  -49.5999  -53.7992 C.2       3 UNK         0.4908 
     56 O          30.1922  -48.8453  -54.7558 O.2       3 UNK        -0.5102 
     57 CA         30.8380  -49.0210  -52.4502 C.3       3 UNK         0.0241 
     58 CB         32.2616  -49.4931  -52.0818 C.3       3 UNK        -0.1971 
     59 N          30.8003  -47.5699  -52.5710 N.am      3 UNK        -0.4139 
     60 C          30.9207  -46.6715  -51.5918 C.2       2 UNK         0.5016 
     61 O          31.0575  -46.9506  -50.3977 O.2       2 UNK        -0.5319 
     62 CA         30.8518  -45.2002  -52.0294 C.3       2 UNK         0.0286 
     63 CB         29.5304  -44.5631  -51.5677 C.3       2 UNK        -0.1963 
     64 N          31.9687  -44.3976  -51.5305 N.am      2 UNK        -0.4790 
     65 C          33.2723  -44.6306  -51.7362 C.2       1 UNK         0.5024 
     66 O          33.7047  -45.5874  -52.3787 O.2       1 UNK        -0.4888 
     67 H67        31.9118  -42.6654  -47.3782 H         1 UNK         0.0892 
     68 H68        33.6633  -42.8092  -47.2155 H         1 UNK         0.0892 
     69 H69        32.9333  -41.2325  -47.5227 H         1 UNK         0.0892 
     70 H70        34.5744  -43.7055  -49.0259 H         1 UNK         0.3107 
     71 H71        35.2152  -44.1824  -51.0153 H         1 UNK         0.0773 
     72 H72        33.5965  -42.0209  -52.4317 H         1 UNK         0.0680 
     73 H73        34.9283  -41.5792  -51.4066 H         1 UNK         0.0680 
     74 H74        35.5946  -42.1038  -55.6248 H         1 UNK         0.0650 
     75 H75        34.4359  -41.2247  -54.6635 H         1 UNK         0.0650 
     76 H76        35.2355  -44.6831  -55.9001 H         1 UNK         0.1397 
     77 H77        31.1246  -45.7705  -56.3842 H         1 UNK         0.1363 
     78 H78        32.1551  -41.9568  -54.7002 H         1 UNK         0.1355 
     79 H79        29.8818  -42.3453  -55.4732 H         1 UNK         0.0707 
     80 H80        29.6724  -43.6898  -54.3809 H         1 UNK         0.0707 
     81 H81        27.2755  -42.8612  -55.4005 H         1 UNK         0.1034 
     82 H82        26.5097  -43.8321  -56.6276 H         1 UNK         0.1034 
     83 H83        27.5742  -44.8452  -53.9506 H         1 UNK         0.0482 
     84 H84        23.5288  -45.0300  -53.9112 H         1 UNK         0.3460 
     85 H85        24.4556  -46.1248  -54.9100 H         1 UNK         0.3460 
     86 H86        26.8658  -46.3901  -56.2740 H         1 UNK         0.2989 
     87 H87        27.7705  -49.1154  -55.4127 H         1 UNK         0.0559 
     88 H88        24.9931  -49.4730  -54.1823 H         1 UNK         0.0848 
     89 H89        26.5193  -49.9929  -53.4817 H         1 UNK         0.0848 
     90 H90        25.9370  -50.7479  -54.9543 H         1 UNK         0.0848 
     91 H91        26.7806  -48.9942  -57.3424 H         1 UNK         0.3144 
     92 H92        23.6881  -48.5284  -58.6004 H         1 UNK         0.0727 
     93 H93        24.1842  -46.4486  -59.8926 H         1 UNK         0.0790 
     94 H94        25.3954  -45.9770  -58.6998 H         1 UNK         0.0790 
     95 H95        23.6978  -46.0626  -58.2526 H         1 UNK         0.0790 
     96 H96        26.3551  -48.0138  -59.7000 H         1 UNK         0.3215 
     97 H97        27.2154  -51.3958  -60.0998 H         1 UNK         0.0863 
     98 H98        27.4319  -50.8444  -62.5079 H         1 UNK         0.0808 
     99 H99        26.3792  -49.4414  -62.3134 H         1 UNK         0.0808 
    100 H100       25.7409  -51.0646  -62.0951 H         1 UNK         0.0808 
    101 H101       28.5313  -49.0930  -61.0506 H         1 UNK         0.3118 
    102 H102       30.4623  -48.4544  -60.0673 H         1 UNK         0.0546 
    103 H103       30.4877  -46.3925  -58.6572 H         1 UNK         0.0828 
    104 H104       29.2030  -47.0473  -57.6428 H         1 UNK         0.0828 
    105 H105       28.8872  -46.6470  -59.3269 H         1 UNK         0.0828 
    106 H106       30.6934  -49.0082  -57.1324 H         1 UNK         0.3005 
    107 H107       33.2988  -51.2693  -57.6472 H         1 UNK         0.1257 
    108 H108       34.6601  -49.1196  -57.5507 H         1 UNK         0.0775 
    109 H109       34.7035  -50.0920  -56.1171 H         1 UNK         0.0775 
    110 H110       34.6499  -46.6111  -57.2445 H         1 UNK         0.0840 
    111 H111       32.9900  -46.8845  -57.7130 H         1 UNK         0.0840 
    112 H112       31.9558  -50.1159  -55.3629 H         1 UNK         0.2987 
    113 H113       29.0392  -51.2946  -55.4789 H         1 UNK         0.0785 
    114 H114       29.3239  -53.7624  -55.4945 H         1 UNK         0.0798 
    115 H115       28.8926  -53.2075  -53.8895 H         1 UNK         0.0798 
    116 H116       30.5618  -53.6531  -54.2508 H         1 UNK         0.0798 
    117 H117       30.5255  -51.4741  -53.0518 H         1 UNK         0.3079 
    118 H118       30.1253  -49.3325  -51.6842 H         1 UNK         0.0794 
    119 H119       32.9917  -49.1870  -52.8322 H         1 UNK         0.0786 
    120 H120       32.3167  -50.5783  -51.9934 H         1 UNK         0.0786 
    121 H121       32.5843  -49.0841  -51.1245 H         1 UNK         0.0786 
    122 H122       30.6513  -47.2668  -53.5272 H         1 UNK         0.3032 
    123 H123       30.9003  -45.1681  -53.1181 H         1 UNK         0.1094 
    124 H124       29.4740  -44.5061  -50.4798 H         1 UNK         0.0794 
    125 H125       29.4119  -43.5534  -51.9607 H         1 UNK         0.0794 
    126 H126       28.6746  -45.1500  -51.9033 H         1 UNK         0.0794 
    127 H127       31.7374  -43.5744  -50.9806 H         1 UNK         0.3016 
@<TRIPOS>BOND
     1    1    2 1    
     2    1   67 1    
     3    1   68 1    
     4    1   69 1    
     5    2    3 2    
     6    2    4 am   BACKBONE|DICT|INTERRES
     7    4    5 1    
     8    4   70 1    
     9    5    6 1    
    10    5   65 1    
    11    5   71 1    
    12    6    7 1    
    13    6   72 1    
    14    6   73 1    
    15    7    8 1    
    16    8    9 1    
    17    8   74 1    
    18    8   75 1    
    19    9   10 ar   
    20    9   14 ar   
    21   10   11 ar   
    22   10   76 1    
    23   11   12 ar   
    24   11   48 1    
    25   12   13 ar   
    26   12   77 1    
    27   13   14 ar   
    28   13   15 1    
    29   14   78 1    
    30   15   16 1    
    31   15   79 1    
    32   15   80 1    
    33   16   17 1    
    34   17   18 1    
    35   17   81 1    
    36   17   82 1    
    37   18   19 1    
    38   18   22 1    
    39   18   83 1    
    40   19   20 am   BACKBONE|DICT|INTERRES
    41   19   21 2    
    42   20   84 1    
    43   20   85 1    
    44   22   23 am   BACKBONE|DICT|INTERRES
    45   22   86 1    
    46   23   24 2    
    47   23   25 1    
    48   25   26 1    
    49   25   27 1    
    50   25   87 1    
    51   26   88 1    
    52   26   89 1    
    53   26   90 1    
    54   27   28 am   BACKBONE|DICT|INTERRES
    55   27   91 1    
    56   28   29 2    
    57   28   30 1    
    58   30   31 1    
    59   30   32 1    
    60   30   92 1    
    61   31   93 1    
    62   31   94 1    
    63   31   95 1    
    64   32   33 am   BACKBONE|DICT|INTERRES
    65   32   96 1    
    66   33   34 2    
    67   33   35 1    
    68   35   36 1    
    69   35   37 1    
    70   35   97 1    
    71   36   98 1    
    72   36   99 1    
    73   36  100 1    
    74   37   38 am   BACKBONE|DICT|INTERRES
    75   37  101 1    
    76   38   39 2    
    77   38   40 1    
    78   40   41 1    
    79   40   42 1    
    80   40  102 1    
    81   41  103 1    
    82   41  104 1    
    83   41  105 1    
    84   42   43 am   BACKBONE|DICT|INTERRES
    85   42  106 1    
    86   43   44 2    
    87   43   45 1    
    88   45   46 1    
    89   45   49 1    
    90   45  107 1    
    91   46   47 1    
    92   46  108 1    
    93   46  109 1    
    94   47   48 1    
    95   48  110 1    
    96   48  111 1    
    97   49   50 am   BACKBONE|DICT|INTERRES
    98   49  112 1    
    99   50   51 2    
   100   50   52 1    
   101   52   53 1    
   102   52   54 1    
   103   52  113 1    
   104   53  114 1    
   105   53  115 1    
   106   53  116 1    
   107   54   55 am   BACKBONE|DICT|INTERRES
   108   54  117 1    
   109   55   56 2    
   110   55   57 1    
   111   57   58 1    
   112   57   59 1    
   113   57  118 1    
   114   58  119 1    
   115   58  120 1    
   116   58  121 1    
   117   59   60 am   BACKBONE|DICT|INTERRES
   118   59  122 1    
   119   60   61 2    
   120   60   62 1    
   121   62   63 1    
   122   62   64 1    
   123   62  123 1    
   124   63  124 1    
   125   63  125 1    
   126   63  126 1    
   127   64   65 am   BACKBONE|DICT|INTERRES
   128   64  127 1    
   129   65   66 2    
@<TRIPOS>SUBSTRUCTURE
     1 UNK         1 GROUP             0       ****    0 ROOT    
