@<TRIPOS>MOLECULE
3R134
127   129    1
SMALL
USER_CHARGES


@<TRIPOS>ATOM
      1 CA         31.2099  -48.3858  -57.4667 C.3       0 UNK        -0.1968 
      2 C          32.3958  -47.6198  -56.9059 C.2       0 UNK         0.4852 
      3 O          33.4146  -47.4911  -57.5861 O.2       0 UNK        -0.5359 
      4 N          32.2799  -47.1386  -55.6600 N.am      1 UNK        -0.4300 
      5 CA         33.2914  -46.4188  -54.8758 C.3       1 UNK         0.0863 
      6 C6         33.8412  -45.1464  -55.5765 C.3       11 UNK        -0.0953 
      7 S7         34.7233  -44.0354  -54.4295 S.3       11 UNK        -0.2369 
      8 C8         33.6860  -42.5411  -54.4681 C.3       11 UNK         0.0226 
      9 C9         32.3344  -42.7492  -53.7992 C.ar      11 UNK        -0.0699 
     10 C10        32.2596  -42.9766  -52.4225 C.ar      11 UNK        -0.0804 
     11 C11        31.0207  -43.1138  -51.7907 C.ar      11 UNK        -0.0871 
     12 C12        29.8473  -43.0266  -52.5490 C.ar      11 UNK        -0.1008 
     13 C13        29.9075  -42.8023  -53.9290 C.ar      11 UNK        -0.0735 
     14 C14        31.1560  -42.6639  -54.5458 C.ar      11 UNK        -0.0945 
     15 C15        28.6261  -42.6310  -54.7377 C.3       11 UNK         0.0169 
     16 S16        28.5712  -43.7001  -56.2124 S.3       11 UNK        -0.2669 
     17 C17        27.1057  -43.0260  -57.0784 C.3       11 UNK        -0.0850 
     18 CA         26.0408  -44.1093  -57.4217 C.3       10 UNK         0.0855 
     19 C          24.7272  -43.5101  -58.0129 C.2       10 UNK         0.5543 
     20 N          24.0182  -44.2132  -58.8891 N.am      10 UNK        -0.7343 
     21 O          24.3239  -42.4082  -57.6491 O.2       10 UNK        -0.5027 
     22 N          26.5981  -45.2349  -58.1931 N.am      10 UNK        -0.4495 
     23 C          27.0991  -45.1724  -59.4353 C.2       10 UNK         0.4903 
     24 O          27.1807  -44.1375  -60.0974 O.2       10 UNK        -0.4860 
     25 CA         27.5971  -46.4906  -60.0551 C.3       9 UNK         0.0227 
     26 CB         29.1290  -46.5598  -59.9694 C.3       9 UNK        -0.1964 
     27 N          27.0258  -47.6984  -59.4483 N.am      9 UNK        -0.4231 
     28 C          25.7364  -48.0581  -59.4798 C.2       9 UNK         0.5014 
     29 O          24.8541  -47.3833  -60.0124 O.2       9 UNK        -0.5270 
     30 CA         25.3534  -49.3749  -58.7793 C.3       8 UNK         0.0284 
     31 CB         25.6217  -50.5872  -59.6923 C.3       8 UNK        -0.1977 
     32 N          25.9483  -49.5581  -57.4457 N.am      8 UNK        -0.4342 
     33 C          27.2309  -49.7407  -57.1034 C.2       8 UNK         0.5039 
     34 O          28.1651  -49.7342  -57.9070 O.2       8 UNK        -0.5547 
     35 CA         27.5139  -49.8838  -55.5971 C.3       7 UNK         0.0281 
     36 CB         28.8205  -50.6476  -55.3200 C.3       7 UNK        -0.1963 
     37 N          27.5742  -48.5701  -54.9524 N.am      7 UNK        -0.4444 
     38 C          26.5133  -47.7843  -54.7160 C.2       7 UNK         0.5104 
     39 O          25.3546  -48.1251  -54.9625 O.2       7 UNK        -0.5100 
     40 CA         26.7880  -46.3731  -54.1576 C.3       6 UNK         0.0396 
     41 CB         25.5974  -45.7964  -53.3641 C.3       6 UNK        -0.1801 
     42 N          28.0382  -46.2447  -53.4015 N.am      6 UNK        -0.4747 
     43 C          28.3570  -46.8812  -52.2659 C.2       6 UNK         0.5012 
     44 O          27.6222  -47.6848  -51.6878 O.2       6 UNK        -0.5003 
     45 CA         29.7434  -46.5648  -51.6759 C.3       5 UNK         0.0782 
     46 C46        29.5945  -45.7713  -50.3570 C.3       11 UNK        -0.0868 
     47 S47        31.1810  -45.0602  -49.8149 S.3       11 UNK        -0.2515 
     48 C48        30.9606  -43.3139  -50.2822 C.3       11 UNK         0.0199 
     49 N          30.5129  -47.7967  -51.4893 N.am      5 UNK        -0.4607 
     50 C          30.8830  -48.6203  -52.4748 C.2       4 UNK         0.5031 
     51 O          30.6841  -48.3920  -53.6746 O.2       4 UNK        -0.5119 
     52 CA         31.5705  -49.9211  -52.0444 C.3       4 UNK         0.0263 
     53 CB         30.5476  -50.9059  -51.4396 C.3       4 UNK        -0.1967 
     54 N          32.2269  -50.4892  -53.2166 N.am      4 UNK        -0.4237 
     55 C          33.0579  -51.5370  -53.2506 C.2       3 UNK         0.4908 
     56 O          33.3532  -52.2245  -52.2727 O.2       3 UNK        -0.5102 
     57 CA         33.6979  -51.8392  -54.6146 C.3       3 UNK         0.0241 
     58 CB         32.6419  -52.2452  -55.6587 C.3       3 UNK        -0.1971 
     59 N          34.4581  -50.6841  -55.0948 N.am      3 UNK        -0.4139 
     60 C          35.6434  -50.2967  -54.6003 C.2       2 UNK         0.5016 
     61 O          36.2892  -50.9389  -53.7714 O.2       2 UNK        -0.5319 
     62 CA         36.1940  -48.9528  -55.1054 C.3       2 UNK         0.0286 
     63 CB         37.0146  -49.1481  -56.3901 C.3       2 UNK        -0.1963 
     64 N          35.1380  -47.9668  -55.3480 N.am      2 UNK        -0.4790 
     65 C          34.4043  -47.3730  -54.3964 C.2       1 UNK         0.5024 
     66 O          34.5541  -47.5770  -53.1914 O.2       1 UNK        -0.4888 
     67 H67        30.2750  -48.0811  -56.9967 H         1 UNK         0.0892 
     68 H68        31.1223  -48.2128  -58.5381 H         1 UNK         0.0892 
     69 H69        31.3435  -49.4557  -57.3150 H         1 UNK         0.0892 
     70 H70        31.4546  -47.3887  -55.1213 H         1 UNK         0.3107 
     71 H71        32.7596  -46.0886  -53.9811 H         1 UNK         0.0773 
     72 H72        33.0177  -44.5987  -56.0367 H         1 UNK         0.0680 
     73 H73        34.5187  -45.4006  -56.3929 H         1 UNK         0.0680 
     74 H74        33.5677  -42.2131  -55.5021 H         1 UNK         0.0650 
     75 H75        34.2138  -41.7376  -53.9527 H         1 UNK         0.0650 
     76 H76        33.1695  -43.0338  -51.8404 H         1 UNK         0.1397 
     77 H77        28.8860  -43.1086  -52.0605 H         1 UNK         0.1363 
     78 H78        31.2063  -42.4689  -55.6084 H         1 UNK         0.1355 
     79 H79        27.7476  -42.8370  -54.1240 H         1 UNK         0.0707 
     80 H80        28.5550  -41.5874  -55.0471 H         1 UNK         0.0707 
     81 H81        26.6574  -42.2468  -56.4596 H         1 UNK         0.1034 
     82 H82        27.4438  -42.5214  -57.9847 H         1 UNK         0.1034 
     83 H83        25.7130  -44.5415  -56.4776 H         1 UNK         0.0482 
     84 H84        24.3352  -45.1218  -59.1960 H         1 UNK         0.3460 
     85 H85        23.1647  -43.8253  -59.2585 H         1 UNK         0.3460 
     86 H86        26.5624  -46.1377  -57.7464 H         1 UNK         0.2989 
     87 H87        27.3116  -46.4869  -61.1090 H         1 UNK         0.0559 
     88 H88        29.5870  -45.7252  -60.5023 H         1 UNK         0.0848 
     89 H89        29.5151  -47.4777  -60.4131 H         1 UNK         0.0848 
     90 H90        29.4710  -46.5084  -58.9355 H         1 UNK         0.0848 
     91 H91        27.6647  -48.3409  -58.9800 H         1 UNK         0.3144 
     92 H92        24.2761  -49.3306  -58.6105 H         1 UNK         0.0727 
     93 H93        25.2760  -51.5132  -59.2328 H         1 UNK         0.0790 
     94 H94        26.6817  -50.7023  -59.9210 H         1 UNK         0.0790 
     95 H95        25.0964  -50.4814  -60.6425 H         1 UNK         0.0790 
     96 H96        25.2985  -49.4474  -56.6740 H         1 UNK         0.3215 
     97 H97        26.6975  -50.4578  -55.1529 H         1 UNK         0.0863 
     98 H98        28.9445  -50.8354  -54.2553 H         1 UNK         0.0808 
     99 H99        29.6952  -50.0985  -55.6638 H         1 UNK         0.0808 
    100 H100       28.8235  -51.6156  -55.8226 H         1 UNK         0.0808 
    101 H101       28.4928  -48.2276  -54.7045 H         1 UNK         0.3118 
    102 H102       26.9230  -45.7482  -55.0361 H         1 UNK         0.0546 
    103 H103       24.6997  -45.7483  -53.9816 H         1 UNK         0.0828 
    104 H104       25.8040  -44.7831  -53.0197 H         1 UNK         0.0828 
    105 H105       25.3584  -46.4062  -52.4925 H         1 UNK         0.0828 
    106 H106       28.7169  -45.6142  -53.8077 H         1 UNK         0.3005 
    107 H107       30.2907  -45.9476  -52.3923 H         1 UNK         0.1257 
    108 H108       29.2133  -46.4150  -49.5618 H         1 UNK         0.0775 
    109 H109       28.8629  -44.9679  -50.4600 H         1 UNK         0.0775 
    110 H110       30.0196  -42.9370  -49.8784 H         1 UNK         0.0840 
    111 H111       31.7454  -42.7243  -49.8057 H         1 UNK         0.0840 
    112 H112       30.7045  -48.0557  -50.5328 H         1 UNK         0.2987 
    113 H113       32.3354  -49.6787  -51.3038 H         1 UNK         0.0785 
    114 H114       31.0317  -51.8006  -51.0491 H         1 UNK         0.0798 
    115 H115       29.8074  -51.2236  -52.1725 H         1 UNK         0.0798 
    116 H116       30.0061  -50.4539  -50.6078 H         1 UNK         0.0798 
    117 H117       32.0377  -49.9689  -54.0630 H         1 UNK         0.3079 
    118 H118       34.3843  -52.6792  -54.4857 H         1 UNK         0.0794 
    119 H119       32.0594  -53.0990  -55.3097 H         1 UNK         0.0786 
    120 H120       33.1103  -52.5382  -56.5986 H         1 UNK         0.0786 
    121 H121       31.9399  -51.4397  -55.8740 H         1 UNK         0.0786 
    122 H122       34.0215  -50.0951  -55.7875 H         1 UNK         0.3032 
    123 H123       36.8556  -48.5578  -54.3308 H         1 UNK         0.1094 
    124 H124       37.4765  -48.2140  -56.7105 H         1 UNK         0.0794 
    125 H125       37.8186  -49.8687  -56.2337 H         1 UNK         0.0794 
    126 H126       36.3998  -49.5174  -57.2120 H         1 UNK         0.0794 
    127 H127       34.8907  -47.7674  -56.3141 H         1 UNK         0.3016 
@<TRIPOS>BOND
     1    1    2 1    
     2    1   67 1    
     3    1   68 1    
     4    1   69 1    
     5    2    3 2    
     6    2    4 am   BACKBONE|DICT|INTERRES
     7    4    5 1    
     8    4   70 1    
     9    5    6 1    
    10    5   65 1    
    11    5   71 1    
    12    6    7 1    
    13    6   72 1    
    14    6   73 1    
    15    7    8 1    
    16    8    9 1    
    17    8   74 1    
    18    8   75 1    
    19    9   10 ar   
    20    9   14 ar   
    21   10   11 ar   
    22   10   76 1    
    23   11   12 ar   
    24   11   48 1    
    25   12   13 ar   
    26   12   77 1    
    27   13   14 ar   
    28   13   15 1    
    29   14   78 1    
    30   15   16 1    
    31   15   79 1    
    32   15   80 1    
    33   16   17 1    
    34   17   18 1    
    35   17   81 1    
    36   17   82 1    
    37   18   19 1    
    38   18   22 1    
    39   18   83 1    
    40   19   20 am   BACKBONE|DICT|INTERRES
    41   19   21 2    
    42   20   84 1    
    43   20   85 1    
    44   22   23 am   BACKBONE|DICT|INTERRES
    45   22   86 1    
    46   23   24 2    
    47   23   25 1    
    48   25   26 1    
    49   25   27 1    
    50   25   87 1    
    51   26   88 1    
    52   26   89 1    
    53   26   90 1    
    54   27   28 am   BACKBONE|DICT|INTERRES
    55   27   91 1    
    56   28   29 2    
    57   28   30 1    
    58   30   31 1    
    59   30   32 1    
    60   30   92 1    
    61   31   93 1    
    62   31   94 1    
    63   31   95 1    
    64   32   33 am   BACKBONE|DICT|INTERRES
    65   32   96 1    
    66   33   34 2    
    67   33   35 1    
    68   35   36 1    
    69   35   37 1    
    70   35   97 1    
    71   36   98 1    
    72   36   99 1    
    73   36  100 1    
    74   37   38 am   BACKBONE|DICT|INTERRES
    75   37  101 1    
    76   38   39 2    
    77   38   40 1    
    78   40   41 1    
    79   40   42 1    
    80   40  102 1    
    81   41  103 1    
    82   41  104 1    
    83   41  105 1    
    84   42   43 am   BACKBONE|DICT|INTERRES
    85   42  106 1    
    86   43   44 2    
    87   43   45 1    
    88   45   46 1    
    89   45   49 1    
    90   45  107 1    
    91   46   47 1    
    92   46  108 1    
    93   46  109 1    
    94   47   48 1    
    95   48  110 1    
    96   48  111 1    
    97   49   50 am   BACKBONE|DICT|INTERRES
    98   49  112 1    
    99   50   51 2    
   100   50   52 1    
   101   52   53 1    
   102   52   54 1    
   103   52  113 1    
   104   53  114 1    
   105   53  115 1    
   106   53  116 1    
   107   54   55 am   BACKBONE|DICT|INTERRES
   108   54  117 1    
   109   55   56 2    
   110   55   57 1    
   111   57   58 1    
   112   57   59 1    
   113   57  118 1    
   114   58  119 1    
   115   58  120 1    
   116   58  121 1    
   117   59   60 am   BACKBONE|DICT|INTERRES
   118   59  122 1    
   119   60   61 2    
   120   60   62 1    
   121   62   63 1    
   122   62   64 1    
   123   62  123 1    
   124   63  124 1    
   125   63  125 1    
   126   63  126 1    
   127   64   65 am   BACKBONE|DICT|INTERRES
   128   64  127 1    
   129   65   66 2    
@<TRIPOS>SUBSTRUCTURE
     1 UNK         1 GROUP             0       ****    0 ROOT    
