@<TRIPOS>MOLECULE
3R134
127   129    1
SMALL
USER_CHARGES


@<TRIPOS>ATOM
      1 CA         36.6528  -46.5668  -55.5449 C.3       0 UNK        -0.1968 
      2 C          36.1990  -45.9178  -54.2454 C.2       0 UNK         0.4852 
      3 O          36.9613  -45.8953  -53.2785 O.2       0 UNK        -0.5359 
      4 N          34.9644  -45.3949  -54.2246 N.am      1 UNK        -0.4300 
      5 CA         34.3003  -44.7606  -53.0776 C.3       1 UNK         0.0863 
      6 C6         35.0074  -43.4494  -52.6318 C.3       11 UNK        -0.0953 
      7 S7         33.8427  -42.1874  -52.0157 S.3       11 UNK        -0.2369 
      8 C8         33.6118  -41.1356  -53.4867 C.3       11 UNK         0.0226 
      9 C9         32.5580  -41.7027  -54.4277 C.ar      11 UNK        -0.0699 
     10 C10        32.9139  -42.5991  -55.4401 C.ar      11 UNK        -0.0804 
     11 C11        31.9390  -43.1402  -56.2848 C.ar      11 UNK        -0.0871 
     12 C12        30.6053  -42.7382  -56.1427 C.ar      11 UNK        -0.1008 
     13 C13        30.2405  -41.8279  -55.1463 C.ar      11 UNK        -0.0735 
     14 C14        31.2202  -41.3226  -54.2863 C.ar      11 UNK        -0.0945 
     15 C15        28.7954  -41.3711  -55.0037 C.3       11 UNK         0.0169 
     16 S16        27.7958  -42.5637  -54.0557 S.3       11 UNK        -0.2669 
     17 C17        26.7232  -43.2843  -55.3490 C.3       11 UNK        -0.0850 
     18 CA         26.4287  -44.7975  -55.1240 C.3       10 UNK         0.0855 
     19 C          25.2809  -45.0827  -54.1033 C.2       10 UNK         0.5543 
     20 N          24.6532  -46.2524  -54.1399 N.am      10 UNK        -0.7343 
     21 O          24.9564  -44.2503  -53.2602 O.2       10 UNK        -0.5027 
     22 N          26.3033  -45.5222  -56.4006 N.am      10 UNK        -0.4495 
     23 C          25.3318  -45.3387  -57.3054 C.2       10 UNK         0.4903 
     24 O          24.3809  -44.5755  -57.1326 O.2       10 UNK        -0.4860 
     25 CA         25.4334  -46.0748  -58.6514 C.3       9 UNK         0.0227 
     26 CB         25.8972  -45.0872  -59.7433 C.3       9 UNK        -0.1964 
     27 N          26.3013  -47.2604  -58.6412 N.am      9 UNK        -0.4231 
     28 C          26.2713  -48.2108  -59.5868 C.2       9 UNK         0.5014 
     29 O          25.4640  -48.2284  -60.5181 O.2       9 UNK        -0.5270 
     30 CA         27.3326  -49.3198  -59.5063 C.3       8 UNK         0.0284 
     31 CB         28.7145  -48.7831  -59.9152 C.3       8 UNK        -0.1977 
     32 N          27.4066  -49.9571  -58.1908 N.am      8 UNK        -0.4342 
     33 C          26.4583  -50.7618  -57.6889 C.2       8 UNK         0.5039 
     34 O          25.4227  -51.0579  -58.2866 O.2       8 UNK        -0.5547 
     35 CA         26.7051  -51.3540  -56.2908 C.3       7 UNK         0.0281 
     36 CB         27.5508  -52.6337  -56.3915 C.3       7 UNK        -0.1963 
     37 N          27.3511  -50.4165  -55.3726 N.am      7 UNK        -0.4444 
     38 C          26.7867  -49.2933  -54.9079 C.2       7 UNK         0.5104 
     39 O          25.6380  -48.9319  -55.1663 O.2       7 UNK        -0.5100 
     40 CA         27.6845  -48.3839  -54.0540 C.3       6 UNK         0.0396 
     41 CB         27.8150  -48.9242  -52.6230 C.3       6 UNK        -0.1801 
     42 N          29.0103  -48.1737  -54.6426 N.am      6 UNK        -0.4747 
     43 C          29.2342  -47.6754  -55.8689 C.2       6 UNK         0.5012 
     44 O          28.3457  -47.3372  -56.6517 O.2       6 UNK        -0.5003 
     45 CA         30.6968  -47.5502  -56.3143 C.3       5 UNK         0.0782 
     46 C46        31.3177  -46.2646  -55.7235 C.3       11 UNK        -0.0868 
     47 S47        32.8279  -45.7619  -56.6088 S.3       11 UNK        -0.2515 
     48 C48        32.3249  -44.1673  -57.3435 C.3       11 UNK         0.0199 
     49 N          31.4466  -48.7632  -55.9774 N.am      5 UNK        -0.4607 
     50 C          31.2415  -49.9561  -56.5537 C.2       4 UNK         0.5031 
     51 O          30.4451  -50.1447  -57.4730 O.2       4 UNK        -0.5119 
     52 CA         32.0194  -51.1477  -55.9712 C.3       4 UNK         0.0263 
     53 CB         33.4707  -51.1488  -56.4779 C.3       4 UNK        -0.1967 
     54 N          32.0076  -51.1701  -54.5058 N.am      4 UNK        -0.4237 
     55 C          30.9036  -51.3050  -53.7560 C.2       3 UNK         0.4908 
     56 O          29.7759  -51.4721  -54.2202 O.2       3 UNK        -0.5102 
     57 CA         31.0746  -51.1996  -52.2293 C.3       3 UNK         0.0241 
     58 CB         31.3787  -52.5824  -51.6311 C.3       3 UNK        -0.1971 
     59 N          32.0915  -50.2393  -51.7811 N.am      3 UNK        -0.4139 
     60 C          32.1661  -48.9462  -52.1292 C.2       2 UNK         0.5016 
     61 O          31.4054  -48.4122  -52.9420 O.2       2 UNK        -0.5319 
     62 CA         33.2858  -48.1146  -51.4815 C.3       2 UNK         0.0286 
     63 CB         34.5849  -48.9137  -51.2407 C.3       2 UNK        -0.1963 
     64 N          33.5706  -46.9675  -52.3378 N.am      2 UNK        -0.4790 
     65 C          34.0425  -45.7792  -51.9428 C.2       1 UNK         0.5024 
     66 O          34.2839  -45.4988  -50.7670 O.2       1 UNK        -0.4888 
     67 H67        35.8947  -46.4969  -56.3249 H         1 UNK         0.0892 
     68 H68        37.5581  -46.0824  -55.9096 H         1 UNK         0.0892 
     69 H69        36.8727  -47.6212  -55.3801 H         1 UNK         0.0892 
     70 H70        34.3946  -45.4644  -55.0600 H         1 UNK         0.3107 
     71 H71        33.3077  -44.4983  -53.4459 H         1 UNK         0.0773 
     72 H72        35.5592  -43.0165  -53.4670 H         1 UNK         0.0680 
     73 H73        35.7628  -43.6425  -51.8681 H         1 UNK         0.0680 
     74 H74        34.5594  -40.9973  -54.0091 H         1 UNK         0.0650 
     75 H75        33.3081  -40.1418  -53.1542 H         1 UNK         0.0650 
     76 H76        33.9471  -42.8967  -55.5543 H         1 UNK         0.1397 
     77 H77        29.8461  -43.1409  -56.7993 H         1 UNK         0.1363 
     78 H78        30.9419  -40.6265  -53.5066 H         1 UNK         0.1355 
     79 H79        28.7589  -40.4100  -54.4884 H         1 UNK         0.0707 
     80 H80        28.3612  -41.1913  -55.9881 H         1 UNK         0.0707 
     81 H81        25.7983  -42.7088  -55.4197 H         1 UNK         0.1034 
     82 H82        27.2239  -43.1527  -56.3091 H         1 UNK         0.1034 
     83 H83        27.3203  -45.2255  -54.6662 H         1 UNK         0.0482 
     84 H84        23.9122  -46.4298  -53.4812 H         1 UNK         0.3460 
     85 H85        24.9273  -46.9760  -54.7928 H         1 UNK         0.3460 
     86 H86        27.0552  -46.1807  -56.5869 H         1 UNK         0.2989 
     87 H87        24.4197  -46.4032  -58.8910 H         1 UNK         0.0559 
     88 H88        25.2822  -44.1861  -59.7481 H         1 UNK         0.0848 
     89 H89        25.8259  -45.5223  -60.7400 H         1 UNK         0.0848 
     90 H90        26.9306  -44.7758  -59.5873 H         1 UNK         0.0848 
     91 H91        26.9963  -47.3371  -57.9026 H         1 UNK         0.3144 
     92 H92        27.0548  -50.0899  -60.2294 H         1 UNK         0.0727 
     93 H93        29.4495  -49.5861  -59.9720 H         1 UNK         0.0790 
     94 H94        29.0870  -48.0375  -59.2132 H         1 UNK         0.0790 
     95 H95        28.6748  -48.3129  -60.8987 H         1 UNK         0.0790 
     96 H96        28.2514  -49.8018  -57.6533 H         1 UNK         0.3215 
     97 H97        25.7334  -51.6184  -55.8680 H         1 UNK         0.0863 
     98 H98        27.6611  -53.1130  -55.4185 H         1 UNK         0.0808 
     99 H99        28.5508  -52.4264  -56.7757 H         1 UNK         0.0808 
    100 H100       27.0859  -53.3593  -57.0603 H         1 UNK         0.0808 
    101 H101       28.2926  -50.6526  -55.0647 H         1 UNK         0.3118 
    102 H102       27.2076  -47.4081  -53.9897 H         1 UNK         0.0546 
    103 H103       28.1834  -49.9486  -52.6104 H         1 UNK         0.0828 
    104 H104       26.8457  -48.9263  -52.1230 H         1 UNK         0.0828 
    105 H105       28.4895  -48.3133  -52.0227 H         1 UNK         0.0828 
    106 H106       29.8145  -48.3969  -54.0605 H         1 UNK         0.3005 
    107 H107       30.6850  -47.4557  -57.4027 H         1 UNK         0.1257 
    108 H108       31.5533  -46.3909  -54.6663 H         1 UNK         0.0775 
    109 H109       30.5990  -45.4454  -55.7630 H         1 UNK         0.0775 
    110 H110       33.1501  -43.7760  -57.9402 H         1 UNK         0.0840 
    111 H111       31.5013  -44.3390  -58.0385 H         1 UNK         0.0840 
    112 H112       32.0567  -48.7078  -55.1755 H         1 UNK         0.2987 
    113 H113       31.5335  -52.0610  -56.3218 H         1 UNK         0.0785 
    114 H114       33.5017  -51.1463  -57.5685 H         1 UNK         0.0798 
    115 H115       34.0070  -52.0369  -56.1432 H         1 UNK         0.0798 
    116 H116       34.0230  -50.2730  -56.1347 H         1 UNK         0.0798 
    117 H117       32.8921  -51.0440  -54.0364 H         1 UNK         0.3079 
    118 H118       30.1226  -50.8619  -51.8188 H         1 UNK         0.0794 
    119 H119       31.3809  -52.5529  -50.5413 H         1 UNK         0.0786 
    120 H120       32.3471  -52.9618  -51.9597 H         1 UNK         0.0786 
    121 H121       30.6243  -53.3117  -51.9303 H         1 UNK         0.0786 
    122 H122       32.7672  -50.5877  -51.1165 H         1 UNK         0.3032 
    123 H123       32.9006  -47.7578  -50.5236 H         1 UNK         0.1094 
    124 H124       34.9551  -49.3691  -52.1602 H         1 UNK         0.0794 
    125 H125       35.3760  -48.2720  -50.8518 H         1 UNK         0.0794 
    126 H126       34.4412  -49.7078  -50.5075 H         1 UNK         0.0794 
    127 H127       33.3275  -47.0966  -53.3095 H         1 UNK         0.3016 
@<TRIPOS>BOND
     1    1    2 1    
     2    1   67 1    
     3    1   68 1    
     4    1   69 1    
     5    2    3 2    
     6    2    4 am   BACKBONE|DICT|INTERRES
     7    4    5 1    
     8    4   70 1    
     9    5    6 1    
    10    5   65 1    
    11    5   71 1    
    12    6    7 1    
    13    6   72 1    
    14    6   73 1    
    15    7    8 1    
    16    8    9 1    
    17    8   74 1    
    18    8   75 1    
    19    9   10 ar   
    20    9   14 ar   
    21   10   11 ar   
    22   10   76 1    
    23   11   12 ar   
    24   11   48 1    
    25   12   13 ar   
    26   12   77 1    
    27   13   14 ar   
    28   13   15 1    
    29   14   78 1    
    30   15   16 1    
    31   15   79 1    
    32   15   80 1    
    33   16   17 1    
    34   17   18 1    
    35   17   81 1    
    36   17   82 1    
    37   18   19 1    
    38   18   22 1    
    39   18   83 1    
    40   19   20 am   BACKBONE|DICT|INTERRES
    41   19   21 2    
    42   20   84 1    
    43   20   85 1    
    44   22   23 am   BACKBONE|DICT|INTERRES
    45   22   86 1    
    46   23   24 2    
    47   23   25 1    
    48   25   26 1    
    49   25   27 1    
    50   25   87 1    
    51   26   88 1    
    52   26   89 1    
    53   26   90 1    
    54   27   28 am   BACKBONE|DICT|INTERRES
    55   27   91 1    
    56   28   29 2    
    57   28   30 1    
    58   30   31 1    
    59   30   32 1    
    60   30   92 1    
    61   31   93 1    
    62   31   94 1    
    63   31   95 1    
    64   32   33 am   BACKBONE|DICT|INTERRES
    65   32   96 1    
    66   33   34 2    
    67   33   35 1    
    68   35   36 1    
    69   35   37 1    
    70   35   97 1    
    71   36   98 1    
    72   36   99 1    
    73   36  100 1    
    74   37   38 am   BACKBONE|DICT|INTERRES
    75   37  101 1    
    76   38   39 2    
    77   38   40 1    
    78   40   41 1    
    79   40   42 1    
    80   40  102 1    
    81   41  103 1    
    82   41  104 1    
    83   41  105 1    
    84   42   43 am   BACKBONE|DICT|INTERRES
    85   42  106 1    
    86   43   44 2    
    87   43   45 1    
    88   45   46 1    
    89   45   49 1    
    90   45  107 1    
    91   46   47 1    
    92   46  108 1    
    93   46  109 1    
    94   47   48 1    
    95   48  110 1    
    96   48  111 1    
    97   49   50 am   BACKBONE|DICT|INTERRES
    98   49  112 1    
    99   50   51 2    
   100   50   52 1    
   101   52   53 1    
   102   52   54 1    
   103   52  113 1    
   104   53  114 1    
   105   53  115 1    
   106   53  116 1    
   107   54   55 am   BACKBONE|DICT|INTERRES
   108   54  117 1    
   109   55   56 2    
   110   55   57 1    
   111   57   58 1    
   112   57   59 1    
   113   57  118 1    
   114   58  119 1    
   115   58  120 1    
   116   58  121 1    
   117   59   60 am   BACKBONE|DICT|INTERRES
   118   59  122 1    
   119   60   61 2    
   120   60   62 1    
   121   62   63 1    
   122   62   64 1    
   123   62  123 1    
   124   63  124 1    
   125   63  125 1    
   126   63  126 1    
   127   64   65 am   BACKBONE|DICT|INTERRES
   128   64  127 1    
   129   65   66 2    
@<TRIPOS>SUBSTRUCTURE
     1 UNK         1 GROUP             0       ****    0 ROOT    
