@<TRIPOS>MOLECULE
3R134
127   129    1
SMALL
USER_CHARGES


@<TRIPOS>ATOM
      1 CA         30.1018  -46.4033  -49.0440 C.3       0 UNK        -0.1968 
      2 C          31.5352  -46.7097  -49.4538 C.2       0 UNK         0.4852 
      3 O          32.2969  -47.2541  -48.6531 O.2       0 UNK        -0.5359 
      4 N          31.9075  -46.3549  -50.6906 N.am      1 UNK        -0.4300 
      5 CA         33.2245  -46.6061  -51.2807 C.3       1 UNK         0.0863 
      6 C6         33.4297  -45.7913  -52.5827 C.3       11 UNK        -0.0953 
      7 S7         33.7608  -44.0325  -52.2260 S.3       11 UNK        -0.2369 
      8 C8         32.1357  -43.2416  -52.4989 C.3       11 UNK         0.0226 
      9 C9         31.7014  -43.0413  -53.9547 C.ar      11 UNK        -0.0699 
     10 C10        32.4715  -43.4548  -55.0517 C.ar      11 UNK        -0.0804 
     11 C11        32.0292  -43.2311  -56.3593 C.ar      11 UNK        -0.0871 
     12 C12        30.8282  -42.5562  -56.5732 C.ar      11 UNK        -0.1008 
     13 C13        30.0368  -42.1549  -55.4962 C.ar      11 UNK        -0.0735 
     14 C14        30.4786  -42.4018  -54.1926 C.ar      11 UNK        -0.0945 
     15 C15        28.7101  -41.4518  -55.7466 C.3       11 UNK         0.0169 
     16 S16        27.3672  -42.6361  -56.0831 S.3       11 UNK        -0.2669 
     17 C17        27.8120  -43.2341  -57.7531 C.3       11 UNK        -0.0850 
     18 CA         26.5982  -43.7608  -58.5603 C.3       10 UNK         0.0855 
     19 C          26.9986  -44.1451  -60.0166 C.2       10 UNK         0.5543 
     20 N          26.6797  -45.3349  -60.5148 N.am      10 UNK        -0.7343 
     21 O          27.6006  -43.3363  -60.7186 O.2       10 UNK        -0.5027 
     22 N          25.8894  -44.8264  -57.8386 N.am      10 UNK        -0.4495 
     23 C          24.5794  -45.0739  -57.9459 C.2       10 UNK         0.4903 
     24 O          23.8057  -44.3972  -58.6258 O.2       10 UNK        -0.4860 
     25 CA         24.0568  -46.2905  -57.1621 C.3       9 UNK         0.0227 
     26 CB         22.6341  -46.7163  -57.5840 C.3       9 UNK        -0.1964 
     27 N          24.9761  -47.4339  -57.2015 N.am      9 UNK        -0.4231 
     28 C          25.3895  -48.1200  -58.2800 C.2       9 UNK         0.5014 
     29 O          25.0769  -47.8154  -59.4323 O.2       9 UNK        -0.5270 
     30 CA         26.3151  -49.3391  -58.0594 C.3       8 UNK         0.0284 
     31 CB         27.5062  -49.3200  -59.0346 C.3       8 UNK        -0.1977 
     32 N          26.8299  -49.4598  -56.6930 N.am      8 UNK        -0.4342 
     33 C          26.1366  -49.8628  -55.6198 C.2       8 UNK         0.5039 
     34 O          24.9853  -50.2946  -55.6712 O.2       8 UNK        -0.5547 
     35 CA         26.8144  -49.6776  -54.2503 C.3       7 UNK         0.0281 
     36 CB         27.5471  -50.9585  -53.8222 C.3       7 UNK        -0.1963 
     37 N          27.7395  -48.5369  -54.2181 N.am      7 UNK        -0.4444 
     38 C          27.3737  -47.2515  -54.3448 C.2       7 UNK         0.5104 
     39 O          26.2077  -46.8854  -54.4902 O.2       7 UNK        -0.5100 
     40 CA         28.5002  -46.2039  -54.3388 C.3       6 UNK         0.0396 
     41 CB         28.8652  -45.8180  -52.8987 C.3       6 UNK        -0.1801 
     42 N          29.6995  -46.6601  -55.0467 N.am      6 UNK        -0.4747 
     43 C          29.7791  -46.7977  -56.3798 C.2       6 UNK         0.5012 
     44 O          28.8566  -46.5228  -57.1480 O.2       6 UNK        -0.5003 
     45 CA         31.0740  -47.4381  -56.9306 C.3       5 UNK         0.0782 
     46 C46        32.2513  -46.4412  -57.0551 C.3       11 UNK        -0.0868 
     47 S47        32.0270  -45.1670  -58.3384 S.3       11 UNK        -0.2515 
     48 C48        32.8307  -43.7311  -57.5515 C.3       11 UNK         0.0199 
     49 N          31.4917  -48.5833  -56.1196 N.am      5 UNK        -0.4607 
     50 C          30.8048  -49.7170  -55.9383 C.2       4 UNK         0.5031 
     51 O          29.7055  -49.9297  -56.4474 O.2       4 UNK        -0.5119 
     52 CA         31.4200  -50.7565  -54.9824 C.3       4 UNK         0.0263 
     53 CB         31.1965  -52.2079  -55.4591 C.3       4 UNK        -0.1967 
     54 N          32.8302  -50.4917  -54.6576 N.am      4 UNK        -0.4237 
     55 C          33.9036  -50.6311  -55.4559 C.2       3 UNK         0.4908 
     56 O          33.8453  -51.0421  -56.6148 O.2       3 UNK        -0.5102 
     57 CA         35.2783  -50.2041  -54.8963 C.3       3 UNK         0.0241 
     58 CB         35.8404  -49.0167  -55.6983 C.3       3 UNK        -0.1971 
     59 N          35.2609  -49.8394  -53.4771 N.am      3 UNK        -0.4139 
     60 C          35.0909  -50.6890  -52.4554 C.2       2 UNK         0.5016 
     61 O          35.0293  -51.9116  -52.5867 O.2       2 UNK        -0.5319 
     62 CA         34.9239  -50.0725  -51.0541 C.3       2 UNK         0.0286 
     63 CB         36.2057  -50.2681  -50.2278 C.3       2 UNK        -0.1963 
     64 N          34.5577  -48.6480  -51.0364 N.am      2 UNK        -0.4790 
     65 C          33.4274  -48.1151  -51.5255 C.2       1 UNK         0.5024 
     66 O          32.5875  -48.7509  -52.1686 O.2       1 UNK        -0.4888 
     67 H67        30.0909  -45.8373  -48.1129 H         1 UNK         0.0892 
     68 H68        29.5755  -45.8190  -49.7983 H         1 UNK         0.0892 
     69 H69        29.5513  -47.3302  -48.8856 H         1 UNK         0.0892 
     70 H70        31.2334  -45.9243  -51.3023 H         1 UNK         0.3107 
     71 H71        33.9746  -46.2844  -50.5543 H         1 UNK         0.0773 
     72 H72        34.2936  -46.1603  -53.1392 H         1 UNK         0.0680 
     73 H73        32.5743  -45.8898  -53.2535 H         1 UNK         0.0680 
     74 H74        31.3733  -43.8044  -51.9620 H         1 UNK         0.0650 
     75 H75        32.1731  -42.2602  -52.0241 H         1 UNK         0.0650 
     76 H76        33.4144  -43.9597  -54.9028 H         1 UNK         0.1397 
     77 H77        30.5005  -42.3695  -57.5858 H         1 UNK         0.1363 
     78 H78        29.8693  -42.0858  -53.3566 H         1 UNK         0.1355 
     79 H79        28.4358  -40.8525  -54.8771 H         1 UNK         0.0707 
     80 H80        28.8040  -40.7513  -56.5779 H         1 UNK         0.0707 
     81 H81        28.2789  -42.4111  -58.2966 H         1 UNK         0.1034 
     82 H82        28.5738  -44.0085  -57.6571 H         1 UNK         0.1034 
     83 H83        25.9112  -42.9193  -58.6680 H         1 UNK         0.0482 
     84 H84        26.9445  -45.5566  -61.4610 H         1 UNK         0.3460 
     85 H85        26.1546  -46.0067  -59.9699 H         1 UNK         0.3460 
     86 H86        26.4658  -45.4419  -57.2816 H         1 UNK         0.2989 
     87 H87        24.0092  -45.9782  -56.1180 H         1 UNK         0.0559 
     88 H88        21.9215  -45.9047  -57.4321 H         1 UNK         0.0848 
     89 H89        22.2843  -47.5663  -56.9982 H         1 UNK         0.0848 
     90 H90        22.5898  -46.9938  -58.6377 H         1 UNK         0.0848 
     91 H91        25.3367  -47.7153  -56.2974 H         1 UNK         0.3144 
     92 H92        25.7192  -50.2283  -58.2744 H         1 UNK         0.0727 
     93 H93        28.1190  -48.4278  -58.9035 H         1 UNK         0.0790 
     94 H94        27.1682  -49.3335  -60.0715 H         1 UNK         0.0790 
     95 H95        28.1483  -50.1900  -58.8947 H         1 UNK         0.0790 
     96 H96        27.8054  -49.2115  -56.5595 H         1 UNK         0.3215 
     97 H97        26.0252  -49.4805  -53.5212 H         1 UNK         0.0863 
     98 H98        28.0037  -50.8493  -52.8384 H         1 UNK         0.0808 
     99 H99        28.3275  -51.2336  -54.5299 H         1 UNK         0.0808 
    100 H100       26.8540  -51.7991  -53.7651 H         1 UNK         0.0808 
    101 H101       28.7211  -48.7471  -54.1263 H         1 UNK         0.3118 
    102 H102       28.1270  -45.3102  -54.8430 H         1 UNK         0.0546 
    103 H103       29.2727  -46.6628  -52.3426 H         1 UNK         0.0828 
    104 H104       27.9869  -45.4631  -52.3574 H         1 UNK         0.0828 
    105 H105       29.5953  -45.0113  -52.8867 H         1 UNK         0.0828 
    106 H106       30.4950  -46.9263  -54.4866 H         1 UNK         0.3005 
    107 H107       30.8402  -47.8199  -57.9273 H         1 UNK         0.1257 
    108 H108       32.4558  -45.9806  -56.0891 H         1 UNK         0.0775 
    109 H109       33.1625  -46.9809  -57.3193 H         1 UNK         0.0775 
    110 H110       33.8476  -43.9973  -57.2583 H         1 UNK         0.0840 
    111 H111       32.9246  -42.9301  -58.2863 H         1 UNK         0.0840 
    112 H112       32.3851  -48.5042  -55.6594 H         1 UNK         0.2987 
    113 H113       30.8814  -50.6413  -54.0407 H         1 UNK         0.0785 
    114 H114       30.1338  -52.4405  -55.5287 H         1 UNK         0.0798 
    115 H115       31.6389  -52.9250  -54.7677 H         1 UNK         0.0798 
    116 H116       31.6235  -52.3844  -56.4464 H         1 UNK         0.0798 
    117 H117       32.9809  -50.1057  -53.7312 H         1 UNK         0.3079 
    118 H118       35.9527  -51.0541  -55.0206 H         1 UNK         0.0794 
    119 H119       36.8429  -48.7502  -55.3624 H         1 UNK         0.0786 
    120 H120       35.2096  -48.1313  -55.6092 H         1 UNK         0.0786 
    121 H121       35.9138  -49.2584  -56.7597 H         1 UNK         0.0786 
    122 H122       35.3233  -48.8559  -53.2595 H         1 UNK         0.3032 
    123 H123       34.1156  -50.6222  -50.5662 H         1 UNK         0.1094 
    124 H124       37.0469  -49.7172  -50.6504 H         1 UNK         0.0794 
    125 H125       36.0695  -49.9377  -49.1977 H         1 UNK         0.0794 
    126 H126       36.4915  -51.3206  -50.1909 H         1 UNK         0.0794 
    127 H127       35.1892  -48.0402  -50.5330 H         1 UNK         0.3016 
@<TRIPOS>BOND
     1    1    2 1    
     2    1   67 1    
     3    1   68 1    
     4    1   69 1    
     5    2    3 2    
     6    2    4 am   BACKBONE|DICT|INTERRES
     7    4    5 1    
     8    4   70 1    
     9    5    6 1    
    10    5   65 1    
    11    5   71 1    
    12    6    7 1    
    13    6   72 1    
    14    6   73 1    
    15    7    8 1    
    16    8    9 1    
    17    8   74 1    
    18    8   75 1    
    19    9   10 ar   
    20    9   14 ar   
    21   10   11 ar   
    22   10   76 1    
    23   11   12 ar   
    24   11   48 1    
    25   12   13 ar   
    26   12   77 1    
    27   13   14 ar   
    28   13   15 1    
    29   14   78 1    
    30   15   16 1    
    31   15   79 1    
    32   15   80 1    
    33   16   17 1    
    34   17   18 1    
    35   17   81 1    
    36   17   82 1    
    37   18   19 1    
    38   18   22 1    
    39   18   83 1    
    40   19   20 am   BACKBONE|DICT|INTERRES
    41   19   21 2    
    42   20   84 1    
    43   20   85 1    
    44   22   23 am   BACKBONE|DICT|INTERRES
    45   22   86 1    
    46   23   24 2    
    47   23   25 1    
    48   25   26 1    
    49   25   27 1    
    50   25   87 1    
    51   26   88 1    
    52   26   89 1    
    53   26   90 1    
    54   27   28 am   BACKBONE|DICT|INTERRES
    55   27   91 1    
    56   28   29 2    
    57   28   30 1    
    58   30   31 1    
    59   30   32 1    
    60   30   92 1    
    61   31   93 1    
    62   31   94 1    
    63   31   95 1    
    64   32   33 am   BACKBONE|DICT|INTERRES
    65   32   96 1    
    66   33   34 2    
    67   33   35 1    
    68   35   36 1    
    69   35   37 1    
    70   35   97 1    
    71   36   98 1    
    72   36   99 1    
    73   36  100 1    
    74   37   38 am   BACKBONE|DICT|INTERRES
    75   37  101 1    
    76   38   39 2    
    77   38   40 1    
    78   40   41 1    
    79   40   42 1    
    80   40  102 1    
    81   41  103 1    
    82   41  104 1    
    83   41  105 1    
    84   42   43 am   BACKBONE|DICT|INTERRES
    85   42  106 1    
    86   43   44 2    
    87   43   45 1    
    88   45   46 1    
    89   45   49 1    
    90   45  107 1    
    91   46   47 1    
    92   46  108 1    
    93   46  109 1    
    94   47   48 1    
    95   48  110 1    
    96   48  111 1    
    97   49   50 am   BACKBONE|DICT|INTERRES
    98   49  112 1    
    99   50   51 2    
   100   50   52 1    
   101   52   53 1    
   102   52   54 1    
   103   52  113 1    
   104   53  114 1    
   105   53  115 1    
   106   53  116 1    
   107   54   55 am   BACKBONE|DICT|INTERRES
   108   54  117 1    
   109   55   56 2    
   110   55   57 1    
   111   57   58 1    
   112   57   59 1    
   113   57  118 1    
   114   58  119 1    
   115   58  120 1    
   116   58  121 1    
   117   59   60 am   BACKBONE|DICT|INTERRES
   118   59  122 1    
   119   60   61 2    
   120   60   62 1    
   121   62   63 1    
   122   62   64 1    
   123   62  123 1    
   124   63  124 1    
   125   63  125 1    
   126   63  126 1    
   127   64   65 am   BACKBONE|DICT|INTERRES
   128   64  127 1    
   129   65   66 2    
@<TRIPOS>SUBSTRUCTURE
     1 UNK         1 GROUP             0       ****    0 ROOT    
