@<TRIPOS>MOLECULE
3R134
127   129    1
SMALL
USER_CHARGES


@<TRIPOS>ATOM
      1 CA         37.4322  -47.1244  -55.3984 C.3       0 UNK        -0.1968 
      2 C          36.5823  -46.5207  -54.2903 C.2       0 UNK         0.4852 
      3 O          37.0256  -46.4756  -53.1411 O.2       0 UNK        -0.5359 
      4 N          35.3671  -46.0667  -54.6315 N.am      1 UNK        -0.4300 
      5 CA         34.3486  -45.4472  -53.7659 C.3       1 UNK         0.0863 
      6 C6         34.8151  -44.1542  -53.0433 C.3       11 UNK        -0.0953 
      7 S7         35.3869  -42.8860  -54.2269 S.3       11 UNK        -0.2369 
      8 C8         34.0034  -41.6999  -54.2322 C.3       11 UNK         0.0226 
      9 C9         32.6727  -42.3496  -54.5895 C.ar      11 UNK        -0.0699 
     10 C10        31.6450  -42.4032  -53.6449 C.ar      11 UNK        -0.0804 
     11 C11        30.4189  -42.9967  -53.9544 C.ar      11 UNK        -0.0871 
     12 C12        30.2310  -43.5347  -55.2329 C.ar      11 UNK        -0.1008 
     13 C13        31.2547  -43.5105  -56.1889 C.ar      11 UNK        -0.0735 
     14 C14        32.4681  -42.8991  -55.8585 C.ar      11 UNK        -0.0945 
     15 C15        31.1200  -44.1445  -57.5764 C.3       11 UNK         0.0169 
     16 S16        29.5477  -45.0092  -57.9286 S.3       11 UNK        -0.2669 
     17 C17        28.4307  -43.6195  -58.3327 C.3       11 UNK        -0.0850 
     18 CA         27.0967  -43.6331  -57.5374 C.3       10 UNK         0.0855 
     19 C          26.2315  -42.3942  -57.9130 C.2       10 UNK         0.5543 
     20 N          25.0824  -42.5540  -58.5584 N.am      10 UNK        -0.7343 
     21 O          26.6141  -41.2663  -57.6124 O.2       10 UNK        -0.5027 
     22 N          26.4106  -44.9304  -57.6512 N.am      10 UNK        -0.4495 
     23 C          25.4095  -45.3600  -56.8754 C.2       10 UNK         0.4903 
     24 O          24.9148  -44.6855  -55.9718 O.2       10 UNK        -0.4860 
     25 CA         24.8541  -46.7773  -57.1315 C.3       9 UNK         0.0227 
     26 CB         23.5625  -46.7164  -57.9711 C.3       9 UNK        -0.1964 
     27 N          25.8111  -47.7498  -57.6891 N.am      9 UNK        -0.4231 
     28 C          26.3878  -47.7661  -58.9007 C.2       9 UNK         0.5014 
     29 O          26.2077  -46.8908  -59.7484 O.2       9 UNK        -0.5270 
     30 CA         27.3381  -48.9308  -59.2290 C.3       8 UNK         0.0284 
     31 CB         28.6792  -48.4154  -59.7827 C.3       8 UNK        -0.1977 
     32 N          27.6074  -49.7874  -58.0699 N.am      8 UNK        -0.4342 
     33 C          27.1378  -51.0309  -57.9107 C.2       8 UNK         0.5039 
     34 O          26.3622  -51.5780  -58.6959 O.2       8 UNK        -0.5547 
     35 CA         27.6232  -51.8096  -56.6768 C.3       7 UNK         0.0281 
     36 CB         29.0294  -52.3818  -56.9193 C.3       7 UNK        -0.1963 
     37 N          27.6245  -51.0294  -55.4379 N.am      7 UNK        -0.4444 
     38 C          26.5260  -50.5932  -54.8063 C.2       7 UNK         0.5104 
     39 O          25.3825  -50.7246  -55.2426 O.2       7 UNK        -0.5100 
     40 CA         26.7427  -49.8927  -53.4558 C.3       6 UNK         0.0396 
     41 CB         27.0488  -50.9124  -52.3464 C.3       6 UNK        -0.1801 
     42 N          27.8199  -48.9062  -53.5380 N.am      6 UNK        -0.4747 
     43 C          27.6523  -47.6652  -54.0175 C.2       6 UNK         0.5012 
     44 O          26.5568  -47.2165  -54.3487 O.2       6 UNK        -0.5003 
     45 CA         28.9115  -46.7845  -54.1803 C.3       5 UNK         0.0782 
     46 C46        29.1173  -45.8606  -52.9514 C.3       11 UNK        -0.0868 
     47 S47        28.0855  -44.3573  -53.0453 S.3       11 UNK        -0.2515 
     48 C48        29.3240  -43.0215  -52.8851 C.3       11 UNK         0.0199 
     49 N          30.1206  -47.5562  -54.4910 N.am      5 UNK        -0.4607 
     50 C          30.2733  -48.3070  -55.5918 C.2       4 UNK         0.5031 
     51 O          29.4150  -48.4258  -56.4636 O.2       4 UNK        -0.5119 
     52 CA         31.5700  -49.1213  -55.7125 C.3       4 UNK         0.0263 
     53 CB         32.7054  -48.2428  -56.2594 C.3       4 UNK        -0.1967 
     54 N          31.9836  -49.7459  -54.4528 N.am      4 UNK        -0.4237 
     55 C          31.2462  -50.5759  -53.7015 C.2       3 UNK         0.4908 
     56 O          30.1059  -50.9287  -54.0029 O.2       3 UNK        -0.5102 
     57 CA         31.8461  -51.0654  -52.3682 C.3       3 UNK         0.0241 
     58 CB         32.6763  -52.3479  -52.5701 C.3       3 UNK        -0.1971 
     59 N          32.5904  -50.0348  -51.6238 N.am      3 UNK        -0.4139 
     60 C          33.7338  -49.4267  -51.9685 C.2       2 UNK         0.5016 
     61 O          34.4034  -49.7243  -52.9614 O.2       2 UNK        -0.5319 
     62 CA         34.1672  -48.2322  -51.1037 C.3       2 UNK         0.0286 
     63 CB         35.3581  -48.6092  -50.2092 C.3       2 UNK        -0.1963 
     64 N          34.5394  -47.0997  -51.9539 N.am      2 UNK        -0.4790 
     65 C          33.7132  -46.4596  -52.7921 C.2       1 UNK         0.5024 
     66 O          32.5018  -46.6802  -52.8508 O.2       1 UNK        -0.4888 
     67 H67        37.6619  -48.1645  -55.1684 H         1 UNK         0.0892 
     68 H68        38.3714  -46.5793  -55.4890 H         1 UNK         0.0892 
     69 H69        36.9282  -47.0941  -56.3642 H         1 UNK         0.0892 
     70 H70        35.0892  -46.1488  -55.5988 H         1 UNK         0.3107 
     71 H71        33.5439  -45.1576  -54.4431 H         1 UNK         0.0773 
     72 H72        35.6306  -44.3648  -52.3504 H         1 UNK         0.0680 
     73 H73        34.0087  -43.7405  -52.4354 H         1 UNK         0.0680 
     74 H74        33.9519  -41.2169  -53.2552 H         1 UNK         0.0650 
     75 H75        34.2197  -40.9104  -54.9530 H         1 UNK         0.0650 
     76 H76        31.8003  -41.9795  -52.6618 H         1 UNK         0.1397 
     77 H77        29.2835  -43.9849  -55.4732 H         1 UNK         0.1363 
     78 H78        33.2688  -42.8671  -56.5851 H         1 UNK         0.1355 
     79 H79        31.9221  -44.8750  -57.6908 H         1 UNK         0.0707 
     80 H80        31.2893  -43.3846  -58.3407 H         1 UNK         0.0707 
     81 H81        28.2304  -43.6552  -59.4053 H         1 UNK         0.1034 
     82 H82        28.9571  -42.6790  -58.1577 H         1 UNK         0.1034 
     83 H83        27.3381  -43.5061  -56.4814 H         1 UNK         0.0482 
     84 H84        24.7643  -43.4769  -58.8065 H         1 UNK         0.3460 
     85 H85        24.5292  -41.7455  -58.7950 H         1 UNK         0.3460 
     86 H86        26.7022  -45.5300  -58.4153 H         1 UNK         0.2989 
     87 H87        24.5795  -47.1771  -56.1544 H         1 UNK         0.0559 
     88 H88        23.1191  -47.7051  -58.0892 H         1 UNK         0.0848 
     89 H89        23.7387  -46.3062  -58.9658 H         1 UNK         0.0848 
     90 H90        22.8163  -46.0831  -57.4896 H         1 UNK         0.0848 
     91 H91        26.0625  -48.5014  -57.0620 H         1 UNK         0.3144 
     92 H92        26.8552  -49.5073  -60.0204 H         1 UNK         0.0727 
     93 H93        29.3411  -49.2401  -60.0470 H         1 UNK         0.0790 
     94 H94        29.2002  -47.7884  -59.0592 H         1 UNK         0.0790 
     95 H95        28.5324  -47.8187  -60.6839 H         1 UNK         0.0790 
     96 H96        28.2515  -49.4002  -57.3772 H         1 UNK         0.3215 
     97 H97        26.9404  -52.6499  -56.5326 H         1 UNK         0.0863 
     98 H98        29.3539  -53.0048  -56.0855 H         1 UNK         0.0808 
     99 H99        29.7684  -51.5917  -57.0527 H         1 UNK         0.0808 
    100 H100       29.0494  -53.0029  -57.8159 H         1 UNK         0.0808 
    101 H101       28.5258  -50.8980  -54.9828 H         1 UNK         0.3118 
    102 H102       25.8130  -49.3865  -53.1862 H         1 UNK         0.0546 
    103 H103       26.2381  -51.6361  -52.2517 H         1 UNK         0.0828 
    104 H104       27.1588  -50.4229  -51.3788 H         1 UNK         0.0828 
    105 H105       27.9620  -51.4744  -52.5426 H         1 UNK         0.0828 
    106 H106       28.7577  -49.2345  -53.3489 H         1 UNK         0.3005 
    107 H107       28.7286  -46.1640  -55.0601 H         1 UNK         0.1257 
    108 H108       30.1593  -45.5475  -52.8884 H         1 UNK         0.0775 
    109 H109       28.9151  -46.3822  -52.0138 H         1 UNK         0.0775 
    110 H110       28.8013  -42.0646  -52.9073 H         1 UNK         0.0840 
    111 H111       29.7762  -43.1015  -51.8951 H         1 UNK         0.0840 
    112 H112       30.8934  -47.4760  -53.8380 H         1 UNK         0.2987 
    113 H113       31.3899  -49.9261  -56.4269 H         1 UNK         0.0785 
    114 H114       32.9213  -47.4081  -55.5942 H         1 UNK         0.0798 
    115 H115       32.4373  -47.8227  -57.2301 H         1 UNK         0.0798 
    116 H116       33.6236  -48.8149  -56.3944 H         1 UNK         0.0798 
    117 H117       32.9237  -49.5463  -54.1201 H         1 UNK         0.3079 
    118 H118       30.9991  -51.3275  -51.7318 H         1 UNK         0.0794 
    119 H119       33.5280  -52.1879  -53.2317 H         1 UNK         0.0786 
    120 H120       32.0675  -53.1359  -53.0155 H         1 UNK         0.0786 
    121 H121       33.0551  -52.7282  -51.6215 H         1 UNK         0.0786 
    122 H122       32.1153  -49.6930  -50.7993 H         1 UNK         0.3032 
    123 H123       33.3336  -47.9197  -50.4709 H         1 UNK         0.1094 
    124 H124       36.2253  -48.9089  -50.7995 H         1 UNK         0.0794 
    125 H125       35.6573  -47.7750  -49.5743 H         1 UNK         0.0794 
    126 H126       35.1056  -49.4428  -49.5523 H         1 UNK         0.0794 
    127 H127       35.5333  -46.9134  -52.0683 H         1 UNK         0.3016 
@<TRIPOS>BOND
     1    1    2 1    
     2    1   67 1    
     3    1   68 1    
     4    1   69 1    
     5    2    3 2    
     6    2    4 am   BACKBONE|DICT|INTERRES
     7    4    5 1    
     8    4   70 1    
     9    5    6 1    
    10    5   65 1    
    11    5   71 1    
    12    6    7 1    
    13    6   72 1    
    14    6   73 1    
    15    7    8 1    
    16    8    9 1    
    17    8   74 1    
    18    8   75 1    
    19    9   10 ar   
    20    9   14 ar   
    21   10   11 ar   
    22   10   76 1    
    23   11   12 ar   
    24   11   48 1    
    25   12   13 ar   
    26   12   77 1    
    27   13   14 ar   
    28   13   15 1    
    29   14   78 1    
    30   15   16 1    
    31   15   79 1    
    32   15   80 1    
    33   16   17 1    
    34   17   18 1    
    35   17   81 1    
    36   17   82 1    
    37   18   19 1    
    38   18   22 1    
    39   18   83 1    
    40   19   20 am   BACKBONE|DICT|INTERRES
    41   19   21 2    
    42   20   84 1    
    43   20   85 1    
    44   22   23 am   BACKBONE|DICT|INTERRES
    45   22   86 1    
    46   23   24 2    
    47   23   25 1    
    48   25   26 1    
    49   25   27 1    
    50   25   87 1    
    51   26   88 1    
    52   26   89 1    
    53   26   90 1    
    54   27   28 am   BACKBONE|DICT|INTERRES
    55   27   91 1    
    56   28   29 2    
    57   28   30 1    
    58   30   31 1    
    59   30   32 1    
    60   30   92 1    
    61   31   93 1    
    62   31   94 1    
    63   31   95 1    
    64   32   33 am   BACKBONE|DICT|INTERRES
    65   32   96 1    
    66   33   34 2    
    67   33   35 1    
    68   35   36 1    
    69   35   37 1    
    70   35   97 1    
    71   36   98 1    
    72   36   99 1    
    73   36  100 1    
    74   37   38 am   BACKBONE|DICT|INTERRES
    75   37  101 1    
    76   38   39 2    
    77   38   40 1    
    78   40   41 1    
    79   40   42 1    
    80   40  102 1    
    81   41  103 1    
    82   41  104 1    
    83   41  105 1    
    84   42   43 am   BACKBONE|DICT|INTERRES
    85   42  106 1    
    86   43   44 2    
    87   43   45 1    
    88   45   46 1    
    89   45   49 1    
    90   45  107 1    
    91   46   47 1    
    92   46  108 1    
    93   46  109 1    
    94   47   48 1    
    95   48  110 1    
    96   48  111 1    
    97   49   50 am   BACKBONE|DICT|INTERRES
    98   49  112 1    
    99   50   51 2    
   100   50   52 1    
   101   52   53 1    
   102   52   54 1    
   103   52  113 1    
   104   53  114 1    
   105   53  115 1    
   106   53  116 1    
   107   54   55 am   BACKBONE|DICT|INTERRES
   108   54  117 1    
   109   55   56 2    
   110   55   57 1    
   111   57   58 1    
   112   57   59 1    
   113   57  118 1    
   114   58  119 1    
   115   58  120 1    
   116   58  121 1    
   117   59   60 am   BACKBONE|DICT|INTERRES
   118   59  122 1    
   119   60   61 2    
   120   60   62 1    
   121   62   63 1    
   122   62   64 1    
   123   62  123 1    
   124   63  124 1    
   125   63  125 1    
   126   63  126 1    
   127   64   65 am   BACKBONE|DICT|INTERRES
   128   64  127 1    
   129   65   66 2    
@<TRIPOS>SUBSTRUCTURE
     1 UNK         1 GROUP             0       ****    0 ROOT    
