@<TRIPOS>MOLECULE
3R134
127   129    1
SMALL
USER_CHARGES


@<TRIPOS>ATOM
      1 CA         32.2308  -45.4016  -49.8162 C.3       0 UNK        -0.1968 
      2 C          33.6877  -45.3905  -50.2490 C.2       0 UNK         0.4852 
      3 O          34.5332  -45.9804  -49.5745 O.2       0 UNK        -0.5359 
      4 N          33.9847  -44.7280  -51.3758 N.am      1 UNK        -0.4300 
      5 CA         35.3267  -44.6636  -51.9746 C.3       1 UNK         0.0863 
      6 C6         35.4528  -43.5311  -53.0232 C.3       11 UNK        -0.0953 
      7 S7         35.0315  -41.8977  -52.3297 S.3       11 UNK        -0.2369 
      8 C8         34.0285  -41.1657  -53.6659 C.3       11 UNK         0.0226 
      9 C9         32.7388  -41.9263  -53.9645 C.ar      11 UNK        -0.0699 
     10 C10        31.8673  -42.3003  -52.9351 C.ar      11 UNK        -0.0804 
     11 C11        30.6700  -42.9677  -53.2146 C.ar      11 UNK        -0.0871 
     12 C12        30.3282  -43.2129  -54.5491 C.ar      11 UNK        -0.1008 
     13 C13        31.1938  -42.8618  -55.5875 C.ar      11 UNK        -0.0735 
     14 C14        32.3999  -42.2225  -55.2890 C.ar      11 UNK        -0.0945 
     15 C15        30.8048  -43.1562  -57.0288 C.3       11 UNK         0.0169 
     16 S16        30.5240  -44.9351  -57.2921 S.3       11 UNK        -0.2669 
     17 C17        29.8471  -44.9362  -58.9840 C.3       11 UNK        -0.0850 
     18 CA         28.3340  -44.5924  -59.0486 C.3       10 UNK         0.0855 
     19 C          27.8518  -44.5276  -60.5298 C.2       10 UNK         0.5543 
     20 N          26.9009  -45.3431  -60.9716 N.am      10 UNK        -0.7343 
     21 O          28.3542  -43.7105  -61.2972 O.2       10 UNK        -0.5027 
     22 N          27.5255  -45.4568  -58.1724 N.am      10 UNK        -0.4495 
     23 C          26.2720  -45.1858  -57.7810 C.2       10 UNK         0.4903 
     24 O          25.7026  -44.1166  -58.0060 O.2       10 UNK        -0.4860 
     25 CA         25.5253  -46.3126  -57.0365 C.3       9 UNK         0.0227 
     26 CB         23.9911  -46.1519  -57.0818 C.3       9 UNK        -0.1964 
     27 N          25.9259  -47.6521  -57.4886 N.am      9 UNK        -0.4231 
     28 C          25.8495  -48.1390  -58.7373 C.2       9 UNK         0.5014 
     29 O          25.3201  -47.5376  -59.6729 O.2       9 UNK        -0.5270 
     30 CA         26.5284  -49.4871  -59.0228 C.3       8 UNK         0.0284 
     31 CB         27.7883  -49.2691  -59.8812 C.3       8 UNK        -0.1977 
     32 N          26.9133  -50.2092  -57.8047 N.am      8 UNK        -0.4342 
     33 C          26.4484  -51.4187  -57.4662 C.2       8 UNK         0.5039 
     34 O          25.5822  -52.0240  -58.0998 O.2       8 UNK        -0.5547 
     35 CA         27.0677  -52.0947  -56.2330 C.3       7 UNK         0.0281 
     36 CB         28.3636  -52.8291  -56.6148 C.3       7 UNK        -0.1963 
     37 N          27.3350  -51.1868  -55.1165 N.am      7 UNK        -0.4444 
     38 C          26.3893  -50.6831  -54.3114 C.2       7 UNK         0.5104 
     39 O          25.1806  -50.8165  -54.5030 O.2       7 UNK        -0.5100 
     40 CA         26.8757  -49.9287  -53.0649 C.3       6 UNK         0.0396 
     41 CB         27.3792  -50.9141  -51.9972 C.3       6 UNK        -0.1801 
     42 N          27.9413  -48.9844  -53.3957 N.am      6 UNK        -0.4747 
     43 C          27.7345  -47.7018  -53.7260 C.2       6 UNK         0.5012 
     44 O          26.6217  -47.1758  -53.7322 O.2       6 UNK        -0.5003 
     45 CA         28.9706  -46.8765  -54.1565 C.3       5 UNK         0.0782 
     46 C46        29.6087  -46.1315  -52.9522 C.3       11 UNK        -0.0868 
     47 S47        28.5739  -44.7259  -52.3958 S.3       11 UNK        -0.2515 
     48 C48        29.7686  -43.3832  -52.0516 C.3       11 UNK         0.0199 
     49 N          29.9493  -47.6942  -54.8866 N.am      5 UNK        -0.4607 
     50 C          29.6943  -48.2897  -56.0641 C.2       4 UNK         0.5031 
     51 O          28.6358  -48.1545  -56.6769 O.2       4 UNK        -0.5119 
     52 CA         30.7515  -49.2428  -56.6494 C.3       4 UNK         0.0263 
     53 CB         31.6214  -48.5051  -57.6779 C.3       4 UNK        -0.1967 
     54 N          31.6143  -49.8736  -55.6504 N.am      4 UNK        -0.4237 
     55 C          31.2103  -50.5979  -54.5961 C.2       3 UNK         0.4908 
     56 O          30.0360  -50.9023  -54.3860 O.2       3 UNK        -0.5102 
     57 CA         32.2855  -50.9985  -53.5688 C.3       3 UNK         0.0241 
     58 CB         32.6817  -52.4708  -53.7600 C.3       3 UNK        -0.1971 
     59 N          33.4919  -50.1584  -53.5981 N.am      3 UNK        -0.4139 
     60 C          33.5144  -48.8319  -53.4036 C.2       2 UNK         0.5016 
     61 O          32.5085  -48.1512  -53.1678 O.2       2 UNK        -0.5319 
     62 CA         34.8738  -48.1441  -53.5715 C.3       2 UNK         0.0286 
     63 CB         35.2757  -48.0654  -55.0572 C.3       2 UNK        -0.1963 
     64 N          34.7526  -46.8027  -53.0217 N.am      2 UNK        -0.4790 
     65 C          35.7437  -46.0122  -52.5982 C.2       1 UNK         0.5024 
     66 O          36.9369  -46.3080  -52.6764 O.2       1 UNK        -0.4888 
     67 H67        31.9381  -44.4223  -49.4389 H         1 UNK         0.0892 
     68 H68        32.0707  -46.1319  -49.0231 H         1 UNK         0.0892 
     69 H69        31.5834  -45.6702  -50.6500 H         1 UNK         0.0892 
     70 H70        33.2596  -44.2405  -51.8819 H         1 UNK         0.3107 
     71 H71        36.0374  -44.4539  -51.1719 H         1 UNK         0.0773 
     72 H72        34.8200  -43.7404  -53.8877 H         1 UNK         0.0680 
     73 H73        36.4749  -43.4742  -53.4025 H         1 UNK         0.0680 
     74 H74        33.7704  -40.1437  -53.3858 H         1 UNK         0.0650 
     75 H75        34.6501  -41.0915  -54.5596 H         1 UNK         0.0650 
     76 H76        32.1232  -42.0651  -51.9107 H         1 UNK         0.1397 
     77 H77        29.3930  -43.6950  -54.7948 H         1 UNK         0.1363 
     78 H78        33.0662  -41.9361  -56.0913 H         1 UNK         0.1355 
     79 H79        31.5740  -42.8102  -57.7210 H         1 UNK         0.0707 
     80 H80        29.8961  -42.6015  -57.2648 H         1 UNK         0.0707 
     81 H81        30.0247  -45.9227  -59.4157 H         1 UNK         0.1034 
     82 H82        30.4293  -44.2373  -59.5880 H         1 UNK         0.1034 
     83 H83        28.2212  -43.5754  -58.6695 H         1 UNK         0.0482 
     84 H84        26.4483  -46.0130  -60.3598 H         1 UNK         0.3460 
     85 H85        26.6087  -45.2743  -61.9332 H         1 UNK         0.3460 
     86 H86        27.9344  -46.3457  -57.9143 H         1 UNK         0.2989 
     87 H87        25.8328  -46.2334  -55.9951 H         1 UNK         0.0559 
     88 H88        23.4927  -46.9552  -56.5393 H         1 UNK         0.0848 
     89 H89        23.6129  -46.1516  -58.1045 H         1 UNK         0.0848 
     90 H90        23.6824  -45.2126  -56.6216 H         1 UNK         0.0848 
     91 H91        26.4586  -48.1877  -56.8165 H         1 UNK         0.3144 
     92 H92        25.8183  -50.0719  -59.6109 H         1 UNK         0.0727 
     93 H93        28.2573  -50.2177  -60.1428 H         1 UNK         0.0790 
     94 H94        28.5311  -48.6594  -59.3657 H         1 UNK         0.0790 
     95 H95        27.5441  -48.7619  -60.8158 H         1 UNK         0.0790 
     96 H96        27.6202  -49.7659  -57.2271 H         1 UNK         0.3215 
     97 H97        26.3543  -52.8455  -55.8851 H         1 UNK         0.0863 
     98 H98        28.7673  -53.3861  -55.7689 H         1 UNK         0.0808 
     99 H99        29.1354  -52.1410  -56.9585 H         1 UNK         0.0808 
    100 H100       28.1844  -53.5454  -57.4179 H         1 UNK         0.0808 
    101 H101       28.3124  -51.0526  -54.8601 H         1 UNK         0.3118 
    102 H102       26.0235  -49.3925  -52.6416 H         1 UNK         0.0546 
    103 H103       26.6000  -51.6289  -51.7288 H         1 UNK         0.0828 
    104 H104       27.6678  -50.3932  -51.0843 H         1 UNK         0.0828 
    105 H105       28.2414  -51.4865  -52.3415 H         1 UNK         0.0828 
    106 H106       28.8758  -49.3664  -53.4808 H         1 UNK         0.3005 
    107 H107       28.6145  -46.1264  -54.8670 H         1 UNK         0.1257 
    108 H108       30.5929  -45.7544  -53.2327 H         1 UNK         0.0775 
    109 H109       29.7798  -46.8095  -52.1139 H         1 UNK         0.0775 
    110 H110       29.2060  -42.5061  -51.7295 H         1 UNK         0.0840 
    111 H111       30.3772  -43.6792  -51.1985 H         1 UNK         0.0840 
    112 H112       30.8396  -47.8562  -54.4279 H         1 UNK         0.2987 
    113 H113       30.2164  -50.0396  -57.1677 H         1 UNK         0.0785 
    114 H114       32.1992  -47.7029  -57.2166 H         1 UNK         0.0798 
    115 H115       31.0053  -48.0546  -58.4571 H         1 UNK         0.0798 
    116 H116       32.3180  -49.1829  -58.1714 H         1 UNK         0.0798 
    117 H117       32.6016  -49.6836  -55.7313 H         1 UNK         0.3079 
    118 H118       31.8352  -50.8894  -52.5799 H         1 UNK         0.0794 
    119 H119       33.1644  -52.6381  -54.7238 H         1 UNK         0.0786 
    120 H120       31.8054  -53.1197  -53.7177 H         1 UNK         0.0786 
    121 H121       33.3650  -52.8036  -52.9784 H         1 UNK         0.0786 
    122 H122       34.3620  -50.6335  -53.7934 H         1 UNK         0.3032 
    123 H123       35.6231  -48.7016  -53.0048 H         1 UNK         0.1094 
    124 H124       34.5362  -47.5202  -55.6456 H         1 UNK         0.0794 
    125 H125       36.2350  -47.5632  -55.1832 H         1 UNK         0.0794 
    126 H126       35.3771  -49.0590  -55.4952 H         1 UNK         0.0794 
    127 H127       33.7915  -46.5171  -52.8746 H         1 UNK         0.3016 
@<TRIPOS>BOND
     1    1    2 1    
     2    1   67 1    
     3    1   68 1    
     4    1   69 1    
     5    2    3 2    
     6    2    4 am   BACKBONE|DICT|INTERRES
     7    4    5 1    
     8    4   70 1    
     9    5    6 1    
    10    5   65 1    
    11    5   71 1    
    12    6    7 1    
    13    6   72 1    
    14    6   73 1    
    15    7    8 1    
    16    8    9 1    
    17    8   74 1    
    18    8   75 1    
    19    9   10 ar   
    20    9   14 ar   
    21   10   11 ar   
    22   10   76 1    
    23   11   12 ar   
    24   11   48 1    
    25   12   13 ar   
    26   12   77 1    
    27   13   14 ar   
    28   13   15 1    
    29   14   78 1    
    30   15   16 1    
    31   15   79 1    
    32   15   80 1    
    33   16   17 1    
    34   17   18 1    
    35   17   81 1    
    36   17   82 1    
    37   18   19 1    
    38   18   22 1    
    39   18   83 1    
    40   19   20 am   BACKBONE|DICT|INTERRES
    41   19   21 2    
    42   20   84 1    
    43   20   85 1    
    44   22   23 am   BACKBONE|DICT|INTERRES
    45   22   86 1    
    46   23   24 2    
    47   23   25 1    
    48   25   26 1    
    49   25   27 1    
    50   25   87 1    
    51   26   88 1    
    52   26   89 1    
    53   26   90 1    
    54   27   28 am   BACKBONE|DICT|INTERRES
    55   27   91 1    
    56   28   29 2    
    57   28   30 1    
    58   30   31 1    
    59   30   32 1    
    60   30   92 1    
    61   31   93 1    
    62   31   94 1    
    63   31   95 1    
    64   32   33 am   BACKBONE|DICT|INTERRES
    65   32   96 1    
    66   33   34 2    
    67   33   35 1    
    68   35   36 1    
    69   35   37 1    
    70   35   97 1    
    71   36   98 1    
    72   36   99 1    
    73   36  100 1    
    74   37   38 am   BACKBONE|DICT|INTERRES
    75   37  101 1    
    76   38   39 2    
    77   38   40 1    
    78   40   41 1    
    79   40   42 1    
    80   40  102 1    
    81   41  103 1    
    82   41  104 1    
    83   41  105 1    
    84   42   43 am   BACKBONE|DICT|INTERRES
    85   42  106 1    
    86   43   44 2    
    87   43   45 1    
    88   45   46 1    
    89   45   49 1    
    90   45  107 1    
    91   46   47 1    
    92   46  108 1    
    93   46  109 1    
    94   47   48 1    
    95   48  110 1    
    96   48  111 1    
    97   49   50 am   BACKBONE|DICT|INTERRES
    98   49  112 1    
    99   50   51 2    
   100   50   52 1    
   101   52   53 1    
   102   52   54 1    
   103   52  113 1    
   104   53  114 1    
   105   53  115 1    
   106   53  116 1    
   107   54   55 am   BACKBONE|DICT|INTERRES
   108   54  117 1    
   109   55   56 2    
   110   55   57 1    
   111   57   58 1    
   112   57   59 1    
   113   57  118 1    
   114   58  119 1    
   115   58  120 1    
   116   58  121 1    
   117   59   60 am   BACKBONE|DICT|INTERRES
   118   59  122 1    
   119   60   61 2    
   120   60   62 1    
   121   62   63 1    
   122   62   64 1    
   123   62  123 1    
   124   63  124 1    
   125   63  125 1    
   126   63  126 1    
   127   64   65 am   BACKBONE|DICT|INTERRES
   128   64  127 1    
   129   65   66 2    
@<TRIPOS>SUBSTRUCTURE
     1 UNK         1 GROUP             0       ****    0 ROOT    
