@<TRIPOS>MOLECULE
3R134
127   129    1
SMALL
USER_CHARGES


@<TRIPOS>ATOM
      1 CA         36.3391  -43.7718  -51.8726 C.3       0 UNK        -0.1968 
      2 C          36.7405  -45.1813  -52.2830 C.2       0 UNK         0.4852 
      3 O          37.7436  -45.7010  -51.7909 O.2       0 UNK        -0.5359 
      4 N          35.9682  -45.7980  -53.1853 N.am      1 UNK        -0.4300 
      5 CA         36.1342  -47.1827  -53.6332 C.3       1 UNK         0.0863 
      6 C6         35.4363  -47.4334  -54.9973 C.3       11 UNK        -0.0953 
      7 S7         33.6789  -46.9301  -55.0530 S.3       11 UNK        -0.2369 
      8 C8         33.7908  -45.4146  -56.0529 C.3       11 UNK         0.0226 
      9 C9         32.4729  -44.6558  -56.0722 C.ar      11 UNK        -0.0699 
     10 C10        32.1914  -43.7097  -55.0821 C.ar      11 UNK        -0.0804 
     11 C11        30.9905  -42.9935  -55.1049 C.ar      11 UNK        -0.0871 
     12 C12        30.0774  -43.2123  -56.1414 C.ar      11 UNK        -0.1008 
     13 C13        30.3391  -44.1705  -57.1253 C.ar      11 UNK        -0.0735 
     14 C14        31.5393  -44.8875  -57.0864 C.ar      11 UNK        -0.0945 
     15 C15        29.3260  -44.4361  -58.2277 C.3       11 UNK         0.0169 
     16 S16        27.9195  -45.4099  -57.6086 S.3       11 UNK        -0.2669 
     17 C17        26.6130  -44.1350  -57.5067 C.3       11 UNK        -0.0850 
     18 CA         25.2243  -44.7046  -57.1066 C.3       10 UNK         0.0855 
     19 C          24.1507  -43.5801  -57.0384 C.2       10 UNK         0.5543 
     20 N          23.0565  -43.6573  -57.7858 N.am      10 UNK        -0.7343 
     21 O          24.3137  -42.6189  -56.2910 O.2       10 UNK        -0.5027 
     22 N          24.8585  -45.8610  -57.9376 N.am      10 UNK        -0.4495 
     23 C          24.0308  -46.8513  -57.5918 C.2       10 UNK         0.4903 
     24 O          23.3701  -46.8612  -56.5537 O.2       10 UNK        -0.4860 
     25 CA         23.9619  -48.0678  -58.5351 C.3       9 UNK         0.0227 
     26 CB         22.8513  -47.8984  -59.5903 C.3       9 UNK        -0.1964 
     27 N          25.2556  -48.4295  -59.1411 N.am      9 UNK        -0.4231 
     28 C          25.9696  -47.7658  -60.0642 C.2       9 UNK         0.5014 
     29 O          25.5993  -46.7167  -60.5935 O.2       9 UNK        -0.5270 
     30 CA         27.3678  -48.3241  -60.3611 C.3       8 UNK         0.0284 
     31 CB         28.1758  -47.4465  -61.3362 C.3       8 UNK        -0.1977 
     32 N          28.0917  -48.4300  -59.0971 N.am      8 UNK        -0.4342 
     33 C          28.7405  -49.5119  -58.6560 C.2       8 UNK         0.5039 
     34 O          28.8740  -50.5495  -59.3060 O.2       8 UNK        -0.5547 
     35 CA         29.3285  -49.4279  -57.2365 C.3       7 UNK         0.0281 
     36 CB         30.7547  -48.8565  -57.2932 C.3       7 UNK        -0.1963 
     37 N          28.5392  -48.6256  -56.2949 N.am      7 UNK        -0.4444 
     38 C          27.2558  -48.8280  -55.9486 C.2       7 UNK         0.5104 
     39 O          26.5432  -49.6935  -56.4586 O.2       7 UNK        -0.5100 
     40 CA         26.6617  -47.9201  -54.8529 C.3       6 UNK         0.0396 
     41 CB         25.9272  -48.7301  -53.7705 C.3       6 UNK        -0.1801 
     42 N          27.6962  -47.0985  -54.2311 N.am      6 UNK        -0.4747 
     43 C          27.5883  -45.8349  -53.8124 C.2       6 UNK         0.5012 
     44 O          26.5234  -45.2180  -53.7692 O.2       6 UNK        -0.5003 
     45 CA         28.9075  -45.1562  -53.3734 C.3       5 UNK         0.0782 
     46 C46        28.6984  -43.7102  -52.8490 C.3       11 UNK        -0.0868 
     47 S47        30.2650  -42.8665  -52.4325 S.3       11 UNK        -0.2515 
     48 C48        30.6680  -42.0085  -53.9907 C.3       11 UNK         0.0199 
     49 N          29.6972  -45.9833  -52.4490 N.am      5 UNK        -0.4607 
     50 C          30.4220  -47.0525  -52.8016 C.2       4 UNK         0.5031 
     51 O          30.4368  -47.4941  -53.9536 O.2       4 UNK        -0.5119 
     52 CA         31.2510  -47.7215  -51.6886 C.3       4 UNK         0.0263 
     53 CB         30.4073  -48.0428  -50.4351 C.3       4 UNK        -0.1967 
     54 N          31.9750  -48.9089  -52.1594 N.am      4 UNK        -0.4237 
     55 C          31.4634  -50.0773  -52.5845 C.2       3 UNK         0.4908 
     56 O          30.2658  -50.3642  -52.5411 O.2       3 UNK        -0.5102 
     57 CA         32.4433  -51.1141  -53.1720 C.3       3 UNK         0.0241 
     58 CB         32.2574  -51.2290  -54.6945 C.3       3 UNK        -0.1971 
     59 N          33.8507  -50.8186  -52.8969 N.am      3 UNK        -0.4139 
     60 C          34.4598  -50.9857  -51.7156 C.2       2 UNK         0.5016 
     61 O          33.9246  -51.5020  -50.7341 O.2       2 UNK        -0.5319 
     62 CA         35.9053  -50.4634  -51.6033 C.3       2 UNK         0.0286 
     63 CB         36.9080  -51.6140  -51.7880 C.3       2 UNK        -0.1963 
     64 N          36.2306  -49.3827  -52.5465 N.am      2 UNK        -0.4790 
     65 C          35.6535  -48.1718  -52.5512 C.2       1 UNK         0.5024 
     66 O          34.7497  -47.8491  -51.7760 O.2       1 UNK        -0.4888 
     67 H67        36.1427  -43.7353  -50.8014 H         1 UNK         0.0892 
     68 H68        35.4427  -43.4344  -52.3928 H         1 UNK         0.0892 
     69 H69        37.1440  -43.0722  -52.0960 H         1 UNK         0.0892 
     70 H70        35.1272  -45.3471  -53.5133 H         1 UNK         0.3107 
     71 H71        37.2032  -47.3563  -53.7762 H         1 UNK         0.0773 
     72 H72        35.9802  -46.9020  -55.7798 H         1 UNK         0.0680 
     73 H73        35.4984  -48.4868  -55.2762 H         1 UNK         0.0680 
     74 H74        34.5790  -44.7715  -55.6590 H         1 UNK         0.0650 
     75 H75        34.0889  -45.6780  -57.0689 H         1 UNK         0.0650 
     76 H76        32.8996  -43.5400  -54.2829 H         1 UNK         0.1397 
     77 H77        29.1478  -42.6612  -56.1659 H         1 UNK         0.1363 
     78 H78        31.7514  -45.6254  -57.8475 H         1 UNK         0.1355 
     79 H79        29.7917  -44.9852  -59.0475 H         1 UNK         0.0707 
     80 H80        28.9843  -43.4915  -58.6532 H         1 UNK         0.0707 
     81 H81        26.5454  -43.6325  -58.4735 H         1 UNK         0.1034 
     82 H82        26.9284  -43.3779  -56.7868 H         1 UNK         0.1034 
     83 H83        25.3135  -45.0712  -56.0843 H         1 UNK         0.0482 
     84 H84        22.3659  -42.9252  -57.7331 H         1 UNK         0.3460 
     85 H85        22.9156  -44.4456  -58.3967 H         1 UNK         0.3460 
     86 H86        25.3116  -45.9258  -58.8437 H         1 UNK         0.2989 
     87 H87        23.6906  -48.9227  -57.9135 H         1 UNK         0.0559 
     88 H88        23.0212  -47.0344  -60.2330 H         1 UNK         0.0848 
     89 H89        21.8818  -47.7559  -59.1112 H         1 UNK         0.0848 
     90 H90        22.7710  -48.7795  -60.2268 H         1 UNK         0.0848 
     91 H91        25.7001  -49.2348  -58.7169 H         1 UNK         0.3144 
     92 H92        27.2289  -49.3088  -60.8123 H         1 UNK         0.0727 
     93 H93        29.1559  -47.8794  -61.5371 H         1 UNK         0.0790 
     94 H94        28.3288  -46.4411  -60.9414 H         1 UNK         0.0790 
     95 H95        27.6615  -47.3492  -62.2931 H         1 UNK         0.0790 
     96 H96        28.0276  -47.6273  -58.4816 H         1 UNK         0.3215 
     97 H97        29.3756  -50.4424  -56.8357 H         1 UNK         0.0863 
     98 H98        31.1959  -48.7802  -56.2998 H         1 UNK         0.0808 
     99 H99        30.7701  -47.8602  -57.7358 H         1 UNK         0.0808 
    100 H100       31.4076  -49.4916  -57.8931 H         1 UNK         0.0808 
    101 H101       29.0427  -47.8767  -55.8399 H         1 UNK         0.3118 
    102 H102       25.9421  -47.2682  -55.3483 H         1 UNK         0.0546 
    103 H103       25.1222  -49.3251  -54.2036 H         1 UNK         0.0828 
    104 H104       25.4771  -48.0757  -53.0239 H         1 UNK         0.0828 
    105 H105       26.6025  -49.4143  -53.2555 H         1 UNK         0.0828 
    106 H106       28.6221  -47.5166  -54.1598 H         1 UNK         0.3005 
    107 H107       29.4877  -45.0814  -54.2934 H         1 UNK         0.1257 
    108 H108       28.0736  -43.7206  -51.9542 H         1 UNK         0.0775 
    109 H109       28.1625  -43.1069  -53.5844 H         1 UNK         0.0775 
    110 H110       29.8414  -41.3538  -54.2714 H         1 UNK         0.0840 
    111 H111       31.5281  -41.3584  -53.8244 H         1 UNK         0.0840 
    112 H112       29.7170  -45.6712  -51.4895 H         1 UNK         0.2987 
    113 H113       32.0210  -47.0031  -51.4034 H         1 UNK         0.0785 
    114 H114       29.5274  -48.6396  -50.6780 H         1 UNK         0.0798 
    115 H115       30.0568  -47.1333  -49.9467 H         1 UNK         0.0798 
    116 H116       30.9907  -48.5940  -49.6974 H         1 UNK         0.0798 
    117 H117       32.9762  -48.7727  -52.2408 H         1 UNK         0.3079 
    118 H118       32.1976  -52.0789  -52.7231 H         1 UNK         0.0794 
    119 H119       32.5678  -50.3166  -55.2040 H         1 UNK         0.0786 
    120 H120       31.2129  -51.4097  -54.9533 H         1 UNK         0.0786 
    121 H121       32.8390  -52.0554  -55.1034 H         1 UNK         0.0786 
    122 H122       34.3806  -50.3964  -53.6451 H         1 UNK         0.3032 
    123 H123       36.0213  -50.0664  -50.5920 H         1 UNK         0.1094 
    124 H124       37.9315  -51.2816  -51.6139 H         1 UNK         0.0794 
    125 H125       36.7089  -52.4223  -51.0825 H         1 UNK         0.0794 
    126 H126       36.8569  -52.0383  -52.7916 H         1 UNK         0.0794 
    127 H127       36.9622  -49.5763  -53.2166 H         1 UNK         0.3016 
@<TRIPOS>BOND
     1    1    2 1    
     2    1   67 1    
     3    1   68 1    
     4    1   69 1    
     5    2    3 2    
     6    2    4 am   BACKBONE|DICT|INTERRES
     7    4    5 1    
     8    4   70 1    
     9    5    6 1    
    10    5   65 1    
    11    5   71 1    
    12    6    7 1    
    13    6   72 1    
    14    6   73 1    
    15    7    8 1    
    16    8    9 1    
    17    8   74 1    
    18    8   75 1    
    19    9   10 ar   
    20    9   14 ar   
    21   10   11 ar   
    22   10   76 1    
    23   11   12 ar   
    24   11   48 1    
    25   12   13 ar   
    26   12   77 1    
    27   13   14 ar   
    28   13   15 1    
    29   14   78 1    
    30   15   16 1    
    31   15   79 1    
    32   15   80 1    
    33   16   17 1    
    34   17   18 1    
    35   17   81 1    
    36   17   82 1    
    37   18   19 1    
    38   18   22 1    
    39   18   83 1    
    40   19   20 am   BACKBONE|DICT|INTERRES
    41   19   21 2    
    42   20   84 1    
    43   20   85 1    
    44   22   23 am   BACKBONE|DICT|INTERRES
    45   22   86 1    
    46   23   24 2    
    47   23   25 1    
    48   25   26 1    
    49   25   27 1    
    50   25   87 1    
    51   26   88 1    
    52   26   89 1    
    53   26   90 1    
    54   27   28 am   BACKBONE|DICT|INTERRES
    55   27   91 1    
    56   28   29 2    
    57   28   30 1    
    58   30   31 1    
    59   30   32 1    
    60   30   92 1    
    61   31   93 1    
    62   31   94 1    
    63   31   95 1    
    64   32   33 am   BACKBONE|DICT|INTERRES
    65   32   96 1    
    66   33   34 2    
    67   33   35 1    
    68   35   36 1    
    69   35   37 1    
    70   35   97 1    
    71   36   98 1    
    72   36   99 1    
    73   36  100 1    
    74   37   38 am   BACKBONE|DICT|INTERRES
    75   37  101 1    
    76   38   39 2    
    77   38   40 1    
    78   40   41 1    
    79   40   42 1    
    80   40  102 1    
    81   41  103 1    
    82   41  104 1    
    83   41  105 1    
    84   42   43 am   BACKBONE|DICT|INTERRES
    85   42  106 1    
    86   43   44 2    
    87   43   45 1    
    88   45   46 1    
    89   45   49 1    
    90   45  107 1    
    91   46   47 1    
    92   46  108 1    
    93   46  109 1    
    94   47   48 1    
    95   48  110 1    
    96   48  111 1    
    97   49   50 am   BACKBONE|DICT|INTERRES
    98   49  112 1    
    99   50   51 2    
   100   50   52 1    
   101   52   53 1    
   102   52   54 1    
   103   52  113 1    
   104   53  114 1    
   105   53  115 1    
   106   53  116 1    
   107   54   55 am   BACKBONE|DICT|INTERRES
   108   54  117 1    
   109   55   56 2    
   110   55   57 1    
   111   57   58 1    
   112   57   59 1    
   113   57  118 1    
   114   58  119 1    
   115   58  120 1    
   116   58  121 1    
   117   59   60 am   BACKBONE|DICT|INTERRES
   118   59  122 1    
   119   60   61 2    
   120   60   62 1    
   121   62   63 1    
   122   62   64 1    
   123   62  123 1    
   124   63  124 1    
   125   63  125 1    
   126   63  126 1    
   127   64   65 am   BACKBONE|DICT|INTERRES
   128   64  127 1    
   129   65   66 2    
@<TRIPOS>SUBSTRUCTURE
     1 UNK         1 GROUP             0       ****    0 ROOT    
