@<TRIPOS>MOLECULE
3R134
127   129    1
SMALL
USER_CHARGES


@<TRIPOS>ATOM
      1 CA         37.1308  -44.8858  -53.2331 C.3       0 UNK        -0.1968 
      2 C          36.1480  -44.7105  -52.0790 C.2       0 UNK         0.4852 
      3 O          36.4564  -43.9904  -51.1305 O.2       0 UNK        -0.5359 
      4 N          34.9659  -45.3397  -52.1013 N.am      1 UNK        -0.4300 
      5 CA         34.4583  -46.2620  -53.1211 C.3       1 UNK         0.0863 
      6 C6         33.2981  -45.6508  -53.9455 C.3       11 UNK        -0.0953 
      7 S7         33.7831  -44.1741  -54.8985 S.3       11 UNK        -0.2369 
      8 C8         32.8978  -42.8538  -54.0071 C.3       11 UNK         0.0226 
      9 C9         31.3913  -42.9596  -54.1998 C.ar      11 UNK        -0.0699 
     10 C10        30.5731  -43.4244  -53.1643 C.ar      11 UNK        -0.0804 
     11 C11        29.1973  -43.5722  -53.3606 C.ar      11 UNK        -0.0871 
     12 C12        28.6416  -43.2339  -54.5985 C.ar      11 UNK        -0.1008 
     13 C13        29.4418  -42.7325  -55.6309 C.ar      11 UNK        -0.0735 
     14 C14        30.8181  -42.6025  -55.4243 C.ar      11 UNK        -0.0945 
     15 C15        28.8331  -42.3689  -56.9809 C.3       11 UNK         0.0169 
     16 S16        27.3544  -41.3149  -56.8192 S.3       11 UNK        -0.2669 
     17 C17        26.7154  -41.3003  -58.5270 C.3       11 UNK        -0.0850 
     18 CA         25.5524  -42.3104  -58.7483 C.3       10 UNK         0.0855 
     19 C          24.6526  -41.8687  -59.9309 C.2       10 UNK         0.5543 
     20 N          23.6888  -40.9936  -59.6812 N.am      10 UNK        -0.7343 
     21 O          24.8379  -42.2854  -61.0739 O.2       10 UNK        -0.5027 
     22 N          26.0482  -43.6689  -58.9998 N.am      10 UNK        -0.4495 
     23 C          26.1694  -44.6550  -58.1068 C.2       10 UNK         0.4903 
     24 O          25.9007  -44.5403  -56.9086 O.2       10 UNK        -0.4860 
     25 CA         26.7160  -45.9819  -58.6678 C.3       9 UNK         0.0227 
     26 CB         28.1657  -45.8189  -59.1591 C.3       9 UNK        -0.1964 
     27 N          26.6794  -47.0536  -57.6731 N.am      9 UNK        -0.4231 
     28 C          25.5850  -47.7407  -57.3254 C.2       9 UNK         0.5014 
     29 O          24.4883  -47.6016  -57.8736 O.2       9 UNK        -0.5270 
     30 CA         25.7524  -48.7491  -56.1701 C.3       8 UNK         0.0284 
     31 CB         24.4656  -49.5475  -55.8713 C.3       8 UNK        -0.1977 
     32 N          26.8892  -49.6601  -56.3498 N.am      8 UNK        -0.4342 
     33 C          27.1186  -50.4998  -57.3708 C.2       8 UNK         0.5039 
     34 O          26.3715  -50.6309  -58.3429 O.2       8 UNK        -0.5547 
     35 CA         28.4100  -51.3381  -57.2706 C.3       7 UNK         0.0281 
     36 CB         28.6307  -52.2677  -58.4831 C.3       7 UNK        -0.1963 
     37 N          29.5944  -50.5077  -57.0270 N.am      7 UNK        -0.4444 
     38 C          30.0718  -49.5155  -57.7930 C.2       7 UNK         0.5104 
     39 O          29.6251  -49.2127  -58.9003 O.2       7 UNK        -0.5100 
     40 CA         31.2346  -48.7099  -57.1773 C.3       6 UNK         0.0396 
     41 CB         31.6743  -47.5105  -58.0424 C.3       6 UNK        -0.1801 
     42 N          30.9358  -48.2755  -55.8066 N.am      6 UNK        -0.4747 
     43 C          29.8912  -47.5334  -55.4017 C.2       6 UNK         0.5012 
     44 O          29.0458  -47.0680  -56.1647 O.2       6 UNK        -0.5003 
     45 CA         29.7603  -47.3251  -53.8775 C.3       5 UNK         0.0782 
     46 C46        28.4213  -46.6583  -53.4482 C.3       11 UNK        -0.0868 
     47 S47        28.6075  -45.8428  -51.8278 S.3       11 UNK        -0.2515 
     48 C48        28.3038  -44.0902  -52.2385 C.3       11 UNK         0.0199 
     49 N          30.0459  -48.5694  -53.1444 N.am      5 UNK        -0.4607 
     50 C          29.3371  -49.7054  -53.2406 C.2       4 UNK         0.5031 
     51 O          28.3434  -49.8280  -53.9591 O.2       4 UNK        -0.5119 
     52 CA         29.8525  -50.9184  -52.4424 C.3       4 UNK         0.0263 
     53 CB         29.0209  -52.1928  -52.7023 C.3       4 UNK        -0.1967 
     54 N          31.2756  -51.1969  -52.6678 N.am      4 UNK        -0.4237 
     55 C          31.9063  -51.3761  -53.8374 C.2       3 UNK         0.4908 
     56 O          31.3494  -51.2885  -54.9327 O.2       3 UNK        -0.5102 
     57 CA         33.4190  -51.6817  -53.7674 C.3       3 UNK         0.0241 
     58 CB         34.0684  -51.7538  -55.1629 C.3       3 UNK        -0.1971 
     59 N          34.1542  -50.7058  -52.9562 N.am      3 UNK        -0.4139 
     60 C          34.1340  -50.6207  -51.6189 C.2       2 UNK         0.5016 
     61 O          33.5232  -51.4116  -50.8984 O.2       2 UNK        -0.5319 
     62 CA         34.8711  -49.4346  -50.9719 C.3       2 UNK         0.0286 
     63 CB         36.2537  -49.8769  -50.4660 C.3       2 UNK        -0.1963 
     64 N          35.0293  -48.2538  -51.8316 N.am      2 UNK        -0.4790 
     65 C          34.0332  -47.5447  -52.3849 C.2       1 UNK         0.5024 
     66 O          32.8412  -47.8496  -52.2951 O.2       1 UNK        -0.4888 
     67 H67        37.9816  -44.2149  -53.1155 H         1 UNK         0.0892 
     68 H68        37.5128  -45.9056  -53.2635 H         1 UNK         0.0892 
     69 H69        36.6613  -44.6554  -54.1886 H         1 UNK         0.0892 
     70 H70        34.3539  -45.2241  -51.3055 H         1 UNK         0.3107 
     71 H71        35.2430  -46.5579  -53.8183 H         1 UNK         0.0773 
     72 H72        32.9153  -46.3813  -54.6600 H         1 UNK         0.0680 
     73 H73        32.4678  -45.3999  -53.2872 H         1 UNK         0.0680 
     74 H74        33.1621  -42.8911  -52.9491 H         1 UNK         0.0650 
     75 H75        33.2424  -41.8867  -54.3758 H         1 UNK         0.0650 
     76 H76        31.0068  -43.6929  -52.2106 H         1 UNK         0.1397 
     77 H77        27.5793  -43.3571  -54.7636 H         1 UNK         0.1363 
     78 H78        31.4521  -42.2407  -56.2223 H         1 UNK         0.1355 
     79 H79        28.5755  -43.2894  -57.5003 H         1 UNK         0.0707 
     80 H80        29.5616  -41.8519  -57.6074 H         1 UNK         0.0707 
     81 H81        27.5256  -41.4723  -59.2380 H         1 UNK         0.1034 
     82 H82        26.3792  -40.2776  -58.7106 H         1 UNK         0.1034 
     83 H83        24.9154  -42.3261  -57.8611 H         1 UNK         0.0482 
     84 H84        23.5342  -40.6393  -58.7498 H         1 UNK         0.3460 
     85 H85        23.0994  -40.6841  -60.4385 H         1 UNK         0.3460 
     86 H86        26.2327  -43.8627  -59.9751 H         1 UNK         0.2989 
     87 H87        26.0947  -46.2732  -59.5172 H         1 UNK         0.0559 
     88 H88        28.5555  -46.7571  -59.5543 H         1 UNK         0.0848 
     89 H89        28.2406  -45.0805  -59.9578 H         1 UNK         0.0848 
     90 H90        28.8275  -45.4982  -58.3546 H         1 UNK         0.0848 
     91 H91        27.5340  -47.1851  -57.1322 H         1 UNK         0.3144 
     92 H92        25.9815  -48.1554  -55.2839 H         1 UNK         0.0727 
     93 H93        24.6005  -50.2100  -55.0164 H         1 UNK         0.0790 
     94 H94        24.1605  -50.1560  -56.7233 H         1 UNK         0.0790 
     95 H95        23.6369  -48.8788  -55.6349 H         1 UNK         0.0790 
     96 H96        27.5565  -49.6639  -55.5773 H         1 UNK         0.3215 
     97 H97        28.2962  -51.9704  -56.3885 H         1 UNK         0.0863 
     98 H98        29.5326  -52.8678  -58.3633 H         1 UNK         0.0808 
     99 H99        28.7209  -51.7073  -59.4142 H         1 UNK         0.0808 
    100 H100       27.7948  -52.9584  -58.6005 H         1 UNK         0.0808 
    101 H101       30.0873  -50.6934  -56.1540 H         1 UNK         0.3118 
    102 H102       32.0806  -49.3954  -57.1081 H         1 UNK         0.0546 
    103 H103       30.8696  -46.7878  -58.1728 H         1 UNK         0.0828 
    104 H104       31.9807  -47.8380  -59.0364 H         1 UNK         0.0828 
    105 H105       32.5214  -46.9895  -57.5964 H         1 UNK         0.0828 
    106 H106       31.5257  -48.6743  -55.0899 H         1 UNK         0.3005 
    107 H107       30.5622  -46.6300  -53.6322 H         1 UNK         0.1257 
    108 H108       28.0845  -45.9183  -54.1740 H         1 UNK         0.0775 
    109 H109       27.6113  -47.3852  -53.3873 H         1 UNK         0.0775 
    110 H110       27.2508  -43.9697  -52.4983 H         1 UNK         0.0840 
    111 H111       28.4652  -43.4860  -51.3448 H         1 UNK         0.0840 
    112 H112       30.8818  -48.5511  -52.5694 H         1 UNK         0.2987 
    113 H113       29.7462  -50.6597  -51.3879 H         1 UNK         0.0785 
    114 H114       29.3686  -53.0248  -52.0900 H         1 UNK         0.0798 
    115 H115       29.0714  -52.5019  -53.7470 H         1 UNK         0.0798 
    116 H116       27.9696  -52.0311  -52.4606 H         1 UNK         0.0798 
    117 H117       31.8520  -51.2734  -51.8329 H         1 UNK         0.3079 
    118 H118       33.5217  -52.6642  -53.3018 H         1 UNK         0.0794 
    119 H119       33.5833  -52.5098  -55.7821 H         1 UNK         0.0786 
    120 H120       35.1228  -52.0226  -55.0970 H         1 UNK         0.0786 
    121 H121       33.9957  -50.8031  -55.6926 H         1 UNK         0.0786 
    122 H122       34.6694  -49.9990  -53.4595 H         1 UNK         0.3032 
    123 H123       34.2740  -49.1292  -50.1096 H         1 UNK         0.1094 
    124 H124       36.1700  -50.7381  -49.8011 H         1 UNK         0.0794 
    125 H125       36.9123  -50.1627  -51.2872 H         1 UNK         0.0794 
    126 H126       36.7436  -49.0834  -49.9013 H         1 UNK         0.0794 
    127 H127       35.9739  -47.9139  -51.9443 H         1 UNK         0.3016 
@<TRIPOS>BOND
     1    1    2 1    
     2    1   67 1    
     3    1   68 1    
     4    1   69 1    
     5    2    3 2    
     6    2    4 am   BACKBONE|DICT|INTERRES
     7    4    5 1    
     8    4   70 1    
     9    5    6 1    
    10    5   65 1    
    11    5   71 1    
    12    6    7 1    
    13    6   72 1    
    14    6   73 1    
    15    7    8 1    
    16    8    9 1    
    17    8   74 1    
    18    8   75 1    
    19    9   10 ar   
    20    9   14 ar   
    21   10   11 ar   
    22   10   76 1    
    23   11   12 ar   
    24   11   48 1    
    25   12   13 ar   
    26   12   77 1    
    27   13   14 ar   
    28   13   15 1    
    29   14   78 1    
    30   15   16 1    
    31   15   79 1    
    32   15   80 1    
    33   16   17 1    
    34   17   18 1    
    35   17   81 1    
    36   17   82 1    
    37   18   19 1    
    38   18   22 1    
    39   18   83 1    
    40   19   20 am   BACKBONE|DICT|INTERRES
    41   19   21 2    
    42   20   84 1    
    43   20   85 1    
    44   22   23 am   BACKBONE|DICT|INTERRES
    45   22   86 1    
    46   23   24 2    
    47   23   25 1    
    48   25   26 1    
    49   25   27 1    
    50   25   87 1    
    51   26   88 1    
    52   26   89 1    
    53   26   90 1    
    54   27   28 am   BACKBONE|DICT|INTERRES
    55   27   91 1    
    56   28   29 2    
    57   28   30 1    
    58   30   31 1    
    59   30   32 1    
    60   30   92 1    
    61   31   93 1    
    62   31   94 1    
    63   31   95 1    
    64   32   33 am   BACKBONE|DICT|INTERRES
    65   32   96 1    
    66   33   34 2    
    67   33   35 1    
    68   35   36 1    
    69   35   37 1    
    70   35   97 1    
    71   36   98 1    
    72   36   99 1    
    73   36  100 1    
    74   37   38 am   BACKBONE|DICT|INTERRES
    75   37  101 1    
    76   38   39 2    
    77   38   40 1    
    78   40   41 1    
    79   40   42 1    
    80   40  102 1    
    81   41  103 1    
    82   41  104 1    
    83   41  105 1    
    84   42   43 am   BACKBONE|DICT|INTERRES
    85   42  106 1    
    86   43   44 2    
    87   43   45 1    
    88   45   46 1    
    89   45   49 1    
    90   45  107 1    
    91   46   47 1    
    92   46  108 1    
    93   46  109 1    
    94   47   48 1    
    95   48  110 1    
    96   48  111 1    
    97   49   50 am   BACKBONE|DICT|INTERRES
    98   49  112 1    
    99   50   51 2    
   100   50   52 1    
   101   52   53 1    
   102   52   54 1    
   103   52  113 1    
   104   53  114 1    
   105   53  115 1    
   106   53  116 1    
   107   54   55 am   BACKBONE|DICT|INTERRES
   108   54  117 1    
   109   55   56 2    
   110   55   57 1    
   111   57   58 1    
   112   57   59 1    
   113   57  118 1    
   114   58  119 1    
   115   58  120 1    
   116   58  121 1    
   117   59   60 am   BACKBONE|DICT|INTERRES
   118   59  122 1    
   119   60   61 2    
   120   60   62 1    
   121   62   63 1    
   122   62   64 1    
   123   62  123 1    
   124   63  124 1    
   125   63  125 1    
   126   63  126 1    
   127   64   65 am   BACKBONE|DICT|INTERRES
   128   64  127 1    
   129   65   66 2    
@<TRIPOS>SUBSTRUCTURE
     1 UNK         1 GROUP             0       ****    0 ROOT    
