@<TRIPOS>MOLECULE
3R134
127   129    1
SMALL
USER_CHARGES


@<TRIPOS>ATOM
      1 CA         33.0914  -45.3267  -49.2621 C.3       0 UNK        -0.1968 
      2 C          34.0099  -45.6387  -50.4336 C.2       0 UNK         0.4852 
      3 O          35.0305  -46.3053  -50.2527 O.2       0 UNK        -0.5359 
      4 N          33.6543  -45.1684  -51.6360 N.am      1 UNK        -0.4300 
      5 CA         34.4073  -45.3189  -52.8903 C.3       1 UNK         0.0863 
      6 C6         34.0638  -44.2091  -53.9254 C.3       11 UNK        -0.0953 
      7 S7         34.1330  -42.5267  -53.2170 S.3       11 UNK        -0.2369 
      8 C8         33.0079  -41.5954  -54.3171 C.3       11 UNK         0.0226 
      9 C9         31.5504  -42.0636  -54.3290 C.ar      11 UNK        -0.0699 
     10 C10        30.9478  -42.6668  -53.2160 C.ar      11 UNK        -0.0804 
     11 C11        29.6247  -43.1205  -53.2775 C.ar      11 UNK        -0.0871 
     12 C12        28.8794  -42.8933  -54.4355 C.ar      11 UNK        -0.1008 
     13 C13        29.4494  -42.2559  -55.5386 C.ar      11 UNK        -0.0735 
     14 C14        30.7883  -41.8585  -55.4852 C.ar      11 UNK        -0.0945 
     15 C15        28.5981  -41.9719  -56.7676 C.3       11 UNK         0.0169 
     16 S16        27.9854  -43.5012  -57.5392 S.3       11 UNK        -0.2669 
     17 C17        29.4649  -44.0791  -58.4368 C.3       11 UNK        -0.0850 
     18 CA         29.0652  -44.8657  -59.7116 C.3       10 UNK         0.0855 
     19 C          30.2866  -45.1334  -60.6362 C.2       10 UNK         0.5543 
     20 N          30.7911  -44.1020  -61.2999 N.am      10 UNK        -0.7343 
     21 O          30.7949  -46.2473  -60.7453 O.2       10 UNK        -0.5027 
     22 N          28.3155  -46.0789  -59.3577 N.am      10 UNK        -0.4495 
     23 C          27.5957  -46.8195  -60.2095 C.2       10 UNK         0.4903 
     24 O          27.4585  -46.5570  -61.4050 O.2       10 UNK        -0.4860 
     25 CA         26.8894  -48.0566  -59.6315 C.3       9 UNK         0.0227 
     26 CB         27.7148  -49.3252  -59.9007 C.3       9 UNK        -0.1964 
     27 N          26.6460  -47.9394  -58.1934 N.am      9 UNK        -0.4231 
     28 C          25.6218  -47.2841  -57.6310 C.2       9 UNK         0.5014 
     29 O          24.7399  -46.7105  -58.2737 O.2       9 UNK        -0.5270 
     30 CA         25.5822  -47.2915  -56.0872 C.3       8 UNK         0.0284 
     31 CB         24.2032  -46.9048  -55.5130 C.3       8 UNK        -0.1977 
     32 N          26.0528  -48.5607  -55.5132 N.am      8 UNK        -0.4342 
     33 C          25.5569  -49.7901  -55.7315 C.2       8 UNK         0.5039 
     34 O          24.5380  -50.0137  -56.3866 O.2       8 UNK        -0.5547 
     35 CA         26.3455  -50.9861  -55.1675 C.3       7 UNK         0.0281 
     36 CB         26.9629  -51.8010  -56.3174 C.3       7 UNK        -0.1963 
     37 N          27.4109  -50.5867  -54.2437 N.am      7 UNK        -0.4444 
     38 C          27.2295  -50.3751  -52.9334 C.2       7 UNK         0.5104 
     39 O          26.1544  -50.5374  -52.3553 O.2       7 UNK        -0.5100 
     40 CA         28.4446  -49.8722  -52.1339 C.3       6 UNK         0.0396 
     41 CB         29.3621  -51.0427  -51.7511 C.3       6 UNK        -0.1801 
     42 N          29.2242  -48.8350  -52.8186 N.am      6 UNK        -0.4747 
     43 C          28.7435  -47.6380  -53.1921 C.2       6 UNK         0.5012 
     44 O          27.5618  -47.3091  -53.0921 O.2       6 UNK        -0.5003 
     45 CA         29.7462  -46.6515  -53.8104 C.3       5 UNK         0.0782 
     46 C46        30.7137  -46.0585  -52.7613 C.3       11 UNK        -0.0868 
     47 S47        29.9959  -45.1500  -51.3474 S.3       11 UNK        -0.2515 
     48 C48        28.9682  -43.8463  -52.1070 C.3       11 UNK         0.0199 
     49 N          30.5033  -47.3042  -54.8757 N.am      5 UNK        -0.4607 
     50 C          30.0461  -47.5533  -56.1078 C.2       4 UNK         0.5031 
     51 O          28.9471  -47.1926  -56.5286 O.2       4 UNK        -0.5119 
     52 CA         30.9663  -48.3777  -57.0214 C.3       4 UNK         0.0263 
     53 CB         31.9706  -47.4624  -57.7360 C.3       4 UNK        -0.1967 
     54 N          31.6934  -49.4309  -56.3093 N.am      4 UNK        -0.4237 
     55 C          31.1222  -50.4498  -55.6502 C.2       3 UNK         0.4908 
     56 O          29.9078  -50.6374  -55.5939 O.2       3 UNK        -0.5102 
     57 CA         32.0608  -51.3979  -54.8869 C.3       3 UNK         0.0241 
     58 CB         32.4989  -52.5604  -55.7914 C.3       3 UNK        -0.1971 
     59 N          33.2445  -50.7372  -54.3284 N.am      3 UNK        -0.4139 
     60 C          33.2313  -49.7299  -53.4427 C.2       2 UNK         0.5016 
     61 O          32.1935  -49.2370  -52.9903 O.2       2 UNK        -0.5319 
     62 CA         34.6050  -49.1942  -52.9821 C.3       2 UNK         0.0286 
     63 CB         35.7579  -49.5119  -53.9630 C.3       2 UNK        -0.1963 
     64 N          34.5984  -47.7589  -52.6754 N.am      2 UNK        -0.4790 
     65 C          34.2603  -46.7433  -53.4821 C.2       1 UNK         0.5024 
     66 O          33.8408  -46.8982  -54.6308 O.2       1 UNK        -0.4888 
     67 H67        33.6765  -45.0289  -48.3925 H         1 UNK         0.0892 
     68 H68        32.4004  -44.5165  -49.4939 H         1 UNK         0.0892 
     69 H69        32.5087  -46.2086  -48.9974 H         1 UNK         0.0892 
     70 H70        32.7976  -44.6413  -51.7140 H         1 UNK         0.3107 
     71 H71        35.4660  -45.2022  -52.6485 H         1 UNK         0.0773 
     72 H72        34.7635  -44.2482  -54.7622 H         1 UNK         0.0680 
     73 H73        33.0766  -44.3702  -54.3582 H         1 UNK         0.0680 
     74 H74        33.0277  -40.5467  -54.0187 H         1 UNK         0.0650 
     75 H75        33.4193  -41.6367  -55.3269 H         1 UNK         0.0650 
     76 H76        31.5119  -42.8084  -52.3059 H         1 UNK         0.1397 
     77 H77        27.8468  -43.2121  -54.4855 H         1 UNK         0.1363 
     78 H78        31.2349  -41.3712  -56.3413 H         1 UNK         0.1355 
     79 H79        29.1427  -41.3763  -57.5018 H         1 UNK         0.0707 
     80 H80        27.7408  -41.3692  -56.4646 H         1 UNK         0.0707 
     81 H81        30.0800  -43.2152  -58.6945 H         1 UNK         0.1034 
     82 H82        30.0674  -44.6933  -57.7656 H         1 UNK         0.1034 
     83 H83        28.3832  -44.2380  -60.2894 H         1 UNK         0.0482 
     84 H84        30.3831  -43.1828  -61.2301 H         1 UNK         0.3460 
     85 H85        31.5874  -44.2508  -61.9000 H         1 UNK         0.3460 
     86 H86        28.3802  -46.3728  -58.3904 H         1 UNK         0.2989 
     87 H87        25.9297  -48.1620  -60.1419 H         1 UNK         0.0559 
     88 H88        28.6984  -49.2769  -59.4339 H         1 UNK         0.0848 
     89 H89        27.8713  -49.4664  -60.9711 H         1 UNK         0.0848 
     90 H90        27.2081  -50.2158  -59.5282 H         1 UNK         0.0848 
     91 H91        27.3620  -48.2965  -57.5737 H         1 UNK         0.3144 
     92 H92        26.2961  -46.5313  -55.7653 H         1 UNK         0.0727 
     93 H93        23.9115  -45.9052  -55.8372 H         1 UNK         0.0790 
     94 H94        24.2168  -46.9000  -54.4231 H         1 UNK         0.0790 
     95 H95        23.4221  -47.5931  -55.8372 H         1 UNK         0.0790 
     96 H96        26.8659  -48.4843  -54.9154 H         1 UNK         0.3215 
     97 H97        25.6352  -51.6284  -54.6420 H         1 UNK         0.0863 
     98 H98        27.5275  -52.6547  -55.9423 H         1 UNK         0.0808 
     99 H99        27.6357  -51.1956  -56.9261 H         1 UNK         0.0808 
    100 H100       26.1888  -52.1902  -56.9801 H         1 UNK         0.0808 
    101 H101       28.3426  -50.4763  -54.6434 H         1 UNK         0.3118 
    102 H102       28.0682  -49.4273  -51.2105 H         1 UNK         0.0546 
    103 H103       29.7321  -51.5665  -52.6313 H         1 UNK         0.0828 
    104 H104       28.8268  -51.7724  -51.1422 H         1 UNK         0.0828 
    105 H105       30.2224  -50.7051  -51.1726 H         1 UNK         0.0828 
    106 H106       30.2175  -49.0164  -52.9410 H         1 UNK         0.3005 
    107 H107       29.1732  -45.8355  -54.2562 H         1 UNK         0.1257 
    108 H108       31.3964  -45.3848  -53.2722 H         1 UNK         0.0775 
    109 H109       31.3404  -46.8468  -52.3421 H         1 UNK         0.0775 
    110 H110       28.0279  -44.3041  -52.4195 H         1 UNK         0.0840 
    111 H111       28.7093  -43.1143  -51.3410 H         1 UNK         0.0840 
    112 H112       31.4151  -47.6626  -54.6209 H         1 UNK         0.2987 
    113 H113       30.3389  -48.8571  -57.7742 H         1 UNK         0.0785 
    114 H114       32.6850  -47.0200  -57.0414 H         1 UNK         0.0798 
    115 H115       31.4604  -46.6408  -58.2361 H         1 UNK         0.0798 
    116 H116       32.5311  -48.0045  -58.4977 H         1 UNK         0.0798 
    117 H117       32.6991  -49.3467  -56.2794 H         1 UNK         0.3079 
    118 H118       31.4981  -51.8154  -54.0516 H         1 UNK         0.0794 
    119 H119       31.6329  -53.0823  -56.2018 H         1 UNK         0.0786 
    120 H120       33.0842  -53.2956  -55.2386 H         1 UNK         0.0786 
    121 H121       33.1002  -52.2151  -56.6334 H         1 UNK         0.0786 
    122 H122       34.1410  -51.0812  -54.6407 H         1 UNK         0.3032 
    123 H123       34.8187  -49.7026  -52.0405 H         1 UNK         0.1094 
    124 H124       36.6967  -49.0806  -53.6149 H         1 UNK         0.0794 
    125 H125       35.9264  -50.5854  -54.0552 H         1 UNK         0.0794 
    126 H126       35.5652  -49.1144  -54.9605 H         1 UNK         0.0794 
    127 H127       34.8715  -47.5048  -51.7284 H         1 UNK         0.3016 
@<TRIPOS>BOND
     1    1    2 1    
     2    1   67 1    
     3    1   68 1    
     4    1   69 1    
     5    2    3 2    
     6    2    4 am   BACKBONE|DICT|INTERRES
     7    4    5 1    
     8    4   70 1    
     9    5    6 1    
    10    5   65 1    
    11    5   71 1    
    12    6    7 1    
    13    6   72 1    
    14    6   73 1    
    15    7    8 1    
    16    8    9 1    
    17    8   74 1    
    18    8   75 1    
    19    9   10 ar   
    20    9   14 ar   
    21   10   11 ar   
    22   10   76 1    
    23   11   12 ar   
    24   11   48 1    
    25   12   13 ar   
    26   12   77 1    
    27   13   14 ar   
    28   13   15 1    
    29   14   78 1    
    30   15   16 1    
    31   15   79 1    
    32   15   80 1    
    33   16   17 1    
    34   17   18 1    
    35   17   81 1    
    36   17   82 1    
    37   18   19 1    
    38   18   22 1    
    39   18   83 1    
    40   19   20 am   BACKBONE|DICT|INTERRES
    41   19   21 2    
    42   20   84 1    
    43   20   85 1    
    44   22   23 am   BACKBONE|DICT|INTERRES
    45   22   86 1    
    46   23   24 2    
    47   23   25 1    
    48   25   26 1    
    49   25   27 1    
    50   25   87 1    
    51   26   88 1    
    52   26   89 1    
    53   26   90 1    
    54   27   28 am   BACKBONE|DICT|INTERRES
    55   27   91 1    
    56   28   29 2    
    57   28   30 1    
    58   30   31 1    
    59   30   32 1    
    60   30   92 1    
    61   31   93 1    
    62   31   94 1    
    63   31   95 1    
    64   32   33 am   BACKBONE|DICT|INTERRES
    65   32   96 1    
    66   33   34 2    
    67   33   35 1    
    68   35   36 1    
    69   35   37 1    
    70   35   97 1    
    71   36   98 1    
    72   36   99 1    
    73   36  100 1    
    74   37   38 am   BACKBONE|DICT|INTERRES
    75   37  101 1    
    76   38   39 2    
    77   38   40 1    
    78   40   41 1    
    79   40   42 1    
    80   40  102 1    
    81   41  103 1    
    82   41  104 1    
    83   41  105 1    
    84   42   43 am   BACKBONE|DICT|INTERRES
    85   42  106 1    
    86   43   44 2    
    87   43   45 1    
    88   45   46 1    
    89   45   49 1    
    90   45  107 1    
    91   46   47 1    
    92   46  108 1    
    93   46  109 1    
    94   47   48 1    
    95   48  110 1    
    96   48  111 1    
    97   49   50 am   BACKBONE|DICT|INTERRES
    98   49  112 1    
    99   50   51 2    
   100   50   52 1    
   101   52   53 1    
   102   52   54 1    
   103   52  113 1    
   104   53  114 1    
   105   53  115 1    
   106   53  116 1    
   107   54   55 am   BACKBONE|DICT|INTERRES
   108   54  117 1    
   109   55   56 2    
   110   55   57 1    
   111   57   58 1    
   112   57   59 1    
   113   57  118 1    
   114   58  119 1    
   115   58  120 1    
   116   58  121 1    
   117   59   60 am   BACKBONE|DICT|INTERRES
   118   59  122 1    
   119   60   61 2    
   120   60   62 1    
   121   62   63 1    
   122   62   64 1    
   123   62  123 1    
   124   63  124 1    
   125   63  125 1    
   126   63  126 1    
   127   64   65 am   BACKBONE|DICT|INTERRES
   128   64  127 1    
   129   65   66 2    
@<TRIPOS>SUBSTRUCTURE
     1 UNK         1 GROUP             0       ****    0 ROOT    
