@<TRIPOS>MOLECULE
3R134
127   129    1
SMALL
USER_CHARGES


@<TRIPOS>ATOM
      1 CA         27.0892  -46.6059  -50.9054 C.3       0 UNK        -0.1968 
      2 C          28.6075  -46.5323  -50.8800 C.2       0 UNK         0.4852 
      3 O          29.1934  -46.3555  -49.8104 O.2       0 UNK        -0.5359 
      4 N          29.2466  -46.6745  -52.0468 N.am      1 UNK        -0.4300 
      5 CA         30.6992  -46.7164  -52.1965 C.3       1 UNK         0.0863 
      6 C6         31.1780  -45.9950  -53.4781 C.3       11 UNK        -0.0953 
      7 S7         30.8780  -44.1986  -53.3791 S.3       11 UNK        -0.2369 
      8 C8         29.4887  -43.9924  -54.5342 C.3       11 UNK         0.0226 
      9 C9         29.9558  -44.0331  -55.9803 C.ar      11 UNK        -0.0699 
     10 C10        29.7817  -45.1883  -56.7483 C.ar      11 UNK        -0.0804 
     11 C11        30.2100  -45.2222  -58.0783 C.ar      11 UNK        -0.0871 
     12 C12        30.7995  -44.0870  -58.6421 C.ar      11 UNK        -0.1008 
     13 C13        30.9732  -42.9231  -57.8873 C.ar      11 UNK        -0.0735 
     14 C14        30.5571  -42.9069  -56.5523 C.ar      11 UNK        -0.0945 
     15 C15        31.6275  -41.6985  -58.5210 C.3       11 UNK         0.0169 
     16 S16        30.6077  -40.1857  -58.4308 S.3       11 UNK        -0.2669 
     17 C17        28.9973  -40.7459  -59.0878 C.3       11 UNK        -0.0850 
     18 CA         27.9296  -40.8311  -57.9580 C.3       10 UNK         0.0855 
     19 C          27.0327  -39.5634  -57.8873 C.2       10 UNK         0.5543 
     20 N          27.6007  -38.4299  -57.5008 N.am      10 UNK        -0.7343 
     21 O          25.8440  -39.5869  -58.2028 O.2       10 UNK        -0.5027 
     22 N          27.1604  -42.0813  -58.0339 N.am      10 UNK        -0.4495 
     23 C          26.5654  -42.6594  -56.9843 C.2       10 UNK         0.4903 
     24 O          26.6133  -42.2060  -55.8367 O.2       10 UNK        -0.4860 
     25 CA         25.8151  -43.9802  -57.2297 C.3       9 UNK         0.0227 
     26 CB         26.3758  -44.7941  -58.4206 C.3       9 UNK        -0.1964 
     27 N          25.8819  -44.7283  -55.9762 N.am      9 UNK        -0.4231 
     28 C          25.2731  -45.8752  -55.6683 C.2       9 UNK         0.5014 
     29 O          24.5476  -46.5120  -56.4361 O.2       9 UNK        -0.5270 
     30 CA         25.4858  -46.3844  -54.2360 C.3       8 UNK         0.0284 
     31 CB         24.2385  -46.1225  -53.3753 C.3       8 UNK        -0.1977 
     32 N          25.7622  -47.8187  -54.2667 N.am      8 UNK        -0.4342 
     33 C          26.9821  -48.3447  -54.4149 C.2       8 UNK         0.5039 
     34 O          28.0233  -47.6813  -54.4041 O.2       8 UNK        -0.5547 
     35 CA         27.0404  -49.8617  -54.6185 C.3       7 UNK         0.0281 
     36 CB         26.5883  -50.2287  -56.0467 C.3       7 UNK        -0.1963 
     37 N          28.4054  -50.3293  -54.3961 N.am      7 UNK        -0.4444 
     38 C          28.7730  -51.6014  -54.1986 C.2       7 UNK         0.5104 
     39 O          27.9729  -52.5298  -54.0661 O.2       7 UNK        -0.5100 
     40 CA         30.2915  -51.8792  -54.1832 C.3       6 UNK         0.0396 
     41 CB         30.6403  -53.3767  -54.3110 C.3       6 UNK        -0.1801 
     42 N          31.0131  -51.0827  -55.1855 N.am      6 UNK        -0.4747 
     43 C          30.8096  -51.0924  -56.5128 C.2       6 UNK         0.5012 
     44 O          30.0469  -51.8680  -57.0905 O.2       6 UNK        -0.5003 
     45 CA         31.5713  -50.0441  -57.3399 C.3       5 UNK         0.0782 
     46 C46        30.8130  -48.6946  -57.3545 C.3       11 UNK        -0.0868 
     47 S47        31.4276  -47.6219  -58.6940 S.3       11 UNK        -0.2515 
     48 C48        30.0306  -46.4775  -58.9167 C.3       11 UNK         0.0199 
     49 N          32.9544  -49.8903  -56.8843 N.am      5 UNK        -0.4607 
     50 C          33.9426  -50.7536  -57.1372 C.2       4 UNK         0.5031 
     51 O          33.7916  -51.8026  -57.7640 O.2       4 UNK        -0.5119 
     52 CA         35.3455  -50.3756  -56.6306 C.3       4 UNK         0.0263 
     53 CB         35.8441  -49.0598  -57.2644 C.3       4 UNK        -0.1967 
     54 N          35.4739  -50.3515  -55.1674 N.am      4 UNK        -0.4237 
     55 C          34.8630  -49.5453  -54.2885 C.2       3 UNK         0.4908 
     56 O          34.0531  -48.6650  -54.5904 O.2       3 UNK        -0.5102 
     57 CA         35.2723  -49.7227  -52.8196 C.3       3 UNK         0.0241 
     58 CB         36.3532  -48.6979  -52.4383 C.3       3 UNK        -0.1971 
     59 N          34.1165  -49.5457  -51.9450 N.am      3 UNK        -0.4139 
     60 C          33.2140  -50.4975  -51.6775 C.2       2 UNK         0.5016 
     61 O          33.3072  -51.6627  -52.0645 O.2       2 UNK        -0.5319 
     62 CA         31.9961  -50.0754  -50.8367 C.3       2 UNK         0.0286 
     63 CB         32.2710  -50.3011  -49.3413 C.3       2 UNK        -0.1963 
     64 N          31.5909  -48.6818  -51.0498 N.am      2 UNK        -0.4790 
     65 C          31.0987  -48.1966  -52.1984 C.2       1 UNK         0.5024 
     66 O          30.9170  -48.8737  -53.2109 O.2       1 UNK        -0.4888 
     67 H67        26.7469  -47.3981  -51.5691 H         1 UNK         0.0892 
     68 H68        26.6706  -45.6583  -51.2428 H         1 UNK         0.0892 
     69 H69        26.6982  -46.8150  -49.9100 H         1 UNK         0.0892 
     70 H70        28.7297  -46.9091  -52.8940 H         1 UNK         0.3107 
     71 H71        31.1829  -46.2289  -51.3470 H         1 UNK         0.0773 
     72 H72        32.2504  -46.1418  -53.6209 H         1 UNK         0.0680 
     73 H73        30.6965  -46.4123  -54.3633 H         1 UNK         0.0680 
     74 H74        28.7363  -44.7595  -54.3447 H         1 UNK         0.0650 
     75 H75        29.0058  -43.0341  -54.3376 H         1 UNK         0.0650 
     76 H76        29.3160  -46.0616  -56.3110 H         1 UNK         0.1397 
     77 H77        31.1287  -44.1135  -59.6719 H         1 UNK         0.1363 
     78 H78        30.6941  -42.0129  -55.9596 H         1 UNK         0.1355 
     79 H79        32.5787  -41.5101  -58.0215 H         1 UNK         0.0707 
     80 H80        31.8659  -41.8881  -59.5687 H         1 UNK         0.0707 
     81 H81        28.6882  -40.0736  -59.8908 H         1 UNK         0.1034 
     82 H82        29.1375  -41.7135  -59.5716 H         1 UNK         0.1034 
     83 H83        28.4527  -40.8698  -56.9999 H         1 UNK         0.0482 
     84 H84        28.5819  -38.4003  -57.2683 H         1 UNK         0.3460 
     85 H85        27.0463  -37.5892  -57.4551 H         1 UNK         0.3460 
     86 H86        27.0496  -42.4903  -58.9490 H         1 UNK         0.2989 
     87 H87        24.7697  -43.7349  -57.4246 H         1 UNK         0.0559 
     88 H88        25.8672  -45.7500  -58.5390 H         1 UNK         0.0848 
     89 H89        27.4372  -45.0001  -58.3002 H         1 UNK         0.0848 
     90 H90        26.2464  -44.2626  -59.3636 H         1 UNK         0.0848 
     91 H91        26.3979  -44.2325  -55.2589 H         1 UNK         0.3144 
     92 H92        26.3299  -45.8572  -53.7859 H         1 UNK         0.0727 
     93 H93        24.3706  -46.4906  -52.3580 H         1 UNK         0.0790 
     94 H94        23.3513  -46.6021  -53.7911 H         1 UNK         0.0790 
     95 H95        24.0293  -45.0540  -53.3084 H         1 UNK         0.0790 
     96 H96        24.9569  -48.4233  -54.3487 H         1 UNK         0.3215 
     97 H97        26.3809  -50.3333  -53.8867 H         1 UNK         0.0863 
     98 H98        26.5833  -51.3078  -56.2009 H         1 UNK         0.0808 
     99 H99        27.2455  -49.7895  -56.7985 H         1 UNK         0.0808 
    100 H100       25.5774  -49.8728  -56.2495 H         1 UNK         0.0808 
    101 H101       29.1124  -49.5995  -54.3998 H         1 UNK         0.3118 
    102 H102       30.6499  -51.5478  -53.2107 H         1 UNK         0.0546 
    103 H103       30.2662  -53.8050  -55.2411 H         1 UNK         0.0828 
    104 H104       30.2045  -53.9494  -53.4917 H         1 UNK         0.0828 
    105 H105       31.7184  -53.5342  -54.2765 H         1 UNK         0.0828 
    106 H106       31.6161  -50.3637  -54.8032 H         1 UNK         0.3005 
    107 H107       31.5968  -50.4280  -58.3630 H         1 UNK         0.1257 
    108 H108       30.9101  -48.1754  -56.3986 H         1 UNK         0.0775 
    109 H109       29.7445  -48.8581  -57.5099 H         1 UNK         0.0775 
    110 H110       29.9655  -46.2115  -59.9728 H         1 UNK         0.0840 
    111 H111       29.0859  -46.9667  -58.6754 H         1 UNK         0.0840 
    112 H112       33.1658  -49.0924  -56.2928 H         1 UNK         0.2987 
    113 H113       36.0176  -51.1657  -56.9700 H         1 UNK         0.0785 
    114 H114       35.2494  -48.1991  -56.9571 H         1 UNK         0.0798 
    115 H115       35.7977  -49.1112  -58.3530 H         1 UNK         0.0798 
    116 H116       36.8810  -48.8604  -56.9942 H         1 UNK         0.0798 
    117 H117       36.1046  -51.0478  -54.7937 H         1 UNK         0.3079 
    118 H118       35.6787  -50.7263  -52.6744 H         1 UNK         0.0794 
    119 H119       36.0030  -47.6729  -52.5689 H         1 UNK         0.0786 
    120 H120       37.2427  -48.8192  -53.0581 H         1 UNK         0.0786 
    121 H121       36.6641  -48.8167  -51.4001 H         1 UNK         0.0786 
    122 H122       33.9259  -48.6067  -51.6285 H         1 UNK         0.3032 
    123 H123       31.1597  -50.7147  -51.1245 H         1 UNK         0.1094 
    124 H124       33.0849  -49.6718  -48.9791 H         1 UNK         0.0794 
    125 H125       31.3876  -50.0892  -48.7385 H         1 UNK         0.0794 
    126 H126       32.5506  -51.3380  -49.1487 H         1 UNK         0.0794 
    127 H127       31.6576  -48.0628  -50.2533 H         1 UNK         0.3016 
@<TRIPOS>BOND
     1    1    2 1    
     2    1   67 1    
     3    1   68 1    
     4    1   69 1    
     5    2    3 2    
     6    2    4 am   BACKBONE|DICT|INTERRES
     7    4    5 1    
     8    4   70 1    
     9    5    6 1    
    10    5   65 1    
    11    5   71 1    
    12    6    7 1    
    13    6   72 1    
    14    6   73 1    
    15    7    8 1    
    16    8    9 1    
    17    8   74 1    
    18    8   75 1    
    19    9   10 ar   
    20    9   14 ar   
    21   10   11 ar   
    22   10   76 1    
    23   11   12 ar   
    24   11   48 1    
    25   12   13 ar   
    26   12   77 1    
    27   13   14 ar   
    28   13   15 1    
    29   14   78 1    
    30   15   16 1    
    31   15   79 1    
    32   15   80 1    
    33   16   17 1    
    34   17   18 1    
    35   17   81 1    
    36   17   82 1    
    37   18   19 1    
    38   18   22 1    
    39   18   83 1    
    40   19   20 am   BACKBONE|DICT|INTERRES
    41   19   21 2    
    42   20   84 1    
    43   20   85 1    
    44   22   23 am   BACKBONE|DICT|INTERRES
    45   22   86 1    
    46   23   24 2    
    47   23   25 1    
    48   25   26 1    
    49   25   27 1    
    50   25   87 1    
    51   26   88 1    
    52   26   89 1    
    53   26   90 1    
    54   27   28 am   BACKBONE|DICT|INTERRES
    55   27   91 1    
    56   28   29 2    
    57   28   30 1    
    58   30   31 1    
    59   30   32 1    
    60   30   92 1    
    61   31   93 1    
    62   31   94 1    
    63   31   95 1    
    64   32   33 am   BACKBONE|DICT|INTERRES
    65   32   96 1    
    66   33   34 2    
    67   33   35 1    
    68   35   36 1    
    69   35   37 1    
    70   35   97 1    
    71   36   98 1    
    72   36   99 1    
    73   36  100 1    
    74   37   38 am   BACKBONE|DICT|INTERRES
    75   37  101 1    
    76   38   39 2    
    77   38   40 1    
    78   40   41 1    
    79   40   42 1    
    80   40  102 1    
    81   41  103 1    
    82   41  104 1    
    83   41  105 1    
    84   42   43 am   BACKBONE|DICT|INTERRES
    85   42  106 1    
    86   43   44 2    
    87   43   45 1    
    88   45   46 1    
    89   45   49 1    
    90   45  107 1    
    91   46   47 1    
    92   46  108 1    
    93   46  109 1    
    94   47   48 1    
    95   48  110 1    
    96   48  111 1    
    97   49   50 am   BACKBONE|DICT|INTERRES
    98   49  112 1    
    99   50   51 2    
   100   50   52 1    
   101   52   53 1    
   102   52   54 1    
   103   52  113 1    
   104   53  114 1    
   105   53  115 1    
   106   53  116 1    
   107   54   55 am   BACKBONE|DICT|INTERRES
   108   54  117 1    
   109   55   56 2    
   110   55   57 1    
   111   57   58 1    
   112   57   59 1    
   113   57  118 1    
   114   58  119 1    
   115   58  120 1    
   116   58  121 1    
   117   59   60 am   BACKBONE|DICT|INTERRES
   118   59  122 1    
   119   60   61 2    
   120   60   62 1    
   121   62   63 1    
   122   62   64 1    
   123   62  123 1    
   124   63  124 1    
   125   63  125 1    
   126   63  126 1    
   127   64   65 am   BACKBONE|DICT|INTERRES
   128   64  127 1    
   129   65   66 2    
@<TRIPOS>SUBSTRUCTURE
     1 UNK         1 GROUP             0       ****    0 ROOT    
