@<TRIPOS>MOLECULE
3R134
127   129    1
SMALL
USER_CHARGES


@<TRIPOS>ATOM
      1 CA         39.6566  -44.3545  -54.0957 C.3       0 UNK        -0.1968 
      2 C          38.3108  -44.7946  -53.5378 C.2       0 UNK         0.4852 
      3 O          38.1025  -44.7156  -52.3265 O.2       0 UNK        -0.5359 
      4 N          37.4056  -45.2515  -54.4160 N.am      1 UNK        -0.4300 
      5 CA         36.0605  -45.7537  -54.1095 C.3       1 UNK         0.0863 
      6 C6         35.1131  -44.6569  -53.5496 C.3       11 UNK        -0.0953 
      7 S7         33.3608  -45.0658  -53.8426 S.3       11 UNK        -0.2369 
      8 C8         32.5885  -43.4346  -53.6433 C.3       11 UNK         0.0226 
      9 C9         31.0757  -43.5446  -53.7409 C.ar      11 UNK        -0.0699 
     10 C10        30.3036  -43.6944  -52.5856 C.ar      11 UNK        -0.0804 
     11 C11        28.9129  -43.8121  -52.6707 C.ar      11 UNK        -0.0871 
     12 C12        28.2948  -43.7826  -53.9251 C.ar      11 UNK        -0.1008 
     13 C13        29.0588  -43.6329  -55.0870 C.ar      11 UNK        -0.0735 
     14 C14        30.4476  -43.5091  -54.9886 C.ar      11 UNK        -0.0945 
     15 C15        28.3909  -43.6363  -56.4516 C.3       11 UNK         0.0169 
     16 S16        27.6056  -42.0411  -56.8216 S.3       11 UNK        -0.2669 
     17 C17        27.3423  -42.1795  -58.6234 C.3       11 UNK        -0.0850 
     18 CA         26.0329  -42.9270  -58.9828 C.3       10 UNK         0.0855 
     19 C          25.6142  -42.6451  -60.4507 C.2       10 UNK         0.5543 
     20 N          24.8227  -41.6062  -60.6788 N.am      10 UNK        -0.7343 
     21 O          26.0304  -43.3289  -61.3842 O.2       10 UNK        -0.5027 
     22 N          26.1590  -44.3692  -58.7355 N.am      10 UNK        -0.4495 
     23 C          25.1366  -45.2000  -58.5208 C.2       10 UNK         0.4903 
     24 O          23.9689  -44.8237  -58.4109 O.2       10 UNK        -0.4860 
     25 CA         25.4391  -46.7051  -58.3981 C.3       9 UNK         0.0227 
     26 CB         25.1560  -47.4280  -59.7289 C.3       9 UNK        -0.1964 
     27 N          26.7637  -47.0748  -57.8753 N.am      9 UNK        -0.4231 
     28 C          27.9785  -46.9262  -58.4257 C.2       9 UNK         0.5014 
     29 O          28.1996  -46.2475  -59.4288 O.2       9 UNK        -0.5270 
     30 CA         29.1459  -47.6800  -57.7563 C.3       8 UNK         0.0284 
     31 CB         29.8565  -46.8080  -56.7106 C.3       8 UNK        -0.1977 
     32 N          28.7307  -48.9352  -57.1264 N.am      8 UNK        -0.4342 
     33 C          28.2918  -50.0197  -57.7815 C.2       8 UNK         0.5039 
     34 O          28.2502  -50.1143  -59.0086 O.2       8 UNK        -0.5547 
     35 CA         27.7925  -51.1876  -56.9176 C.3       7 UNK         0.0281 
     36 CB         28.9648  -52.0498  -56.4202 C.3       7 UNK        -0.1963 
     37 N          27.0108  -50.7069  -55.7766 N.am      7 UNK        -0.4444 
     38 C          25.7181  -50.3582  -55.8397 C.2       7 UNK         0.5104 
     39 O          25.0269  -50.4690  -56.8522 O.2       7 UNK        -0.5100 
     40 CA         25.0830  -49.7839  -54.5595 C.3       6 UNK         0.0396 
     41 CB         24.4175  -50.9039  -53.7443 C.3       6 UNK        -0.1801 
     42 N          26.0326  -49.0638  -53.7062 N.am      6 UNK        -0.4747 
     43 C          26.5979  -47.8882  -54.0190 C.2       6 UNK         0.5012 
     44 O          26.3660  -47.2757  -55.0600 O.2       6 UNK        -0.5003 
     45 CA         27.6346  -47.3285  -53.0234 C.3       5 UNK         0.0782 
     46 C46        26.9227  -46.4811  -51.9416 C.3       11 UNK        -0.0868 
     47 S47        28.0855  -45.6750  -50.7908 S.3       11 UNK        -0.2515 
     48 C48        28.0868  -43.9594  -51.4014 C.3       11 UNK         0.0199 
     49 N          28.4976  -48.3704  -52.4454 N.am      5 UNK        -0.4607 
     50 C          29.2607  -49.2118  -53.1538 C.2       4 UNK         0.5031 
     51 O          29.2589  -49.2601  -54.3860 O.2       4 UNK        -0.5119 
     52 CA         30.1130  -50.2141  -52.3597 C.3       4 UNK         0.0263 
     53 CB         29.2729  -51.4498  -51.9965 C.3       4 UNK        -0.1967 
     54 N          31.2757  -50.6433  -53.1402 N.am      4 UNK        -0.4237 
     55 C          32.3319  -49.8651  -53.4069 C.2       3 UNK         0.4908 
     56 O          32.5050  -48.7486  -52.9136 O.2       3 UNK        -0.5102 
     57 CA         33.3284  -50.4133  -54.4419 C.3       3 UNK         0.0241 
     58 CB         32.8488  -50.0779  -55.8655 C.3       3 UNK        -0.1971 
     59 N          34.6666  -49.8535  -54.2528 N.am      3 UNK        -0.4139 
     60 C          35.5188  -50.2010  -53.2786 C.2       2 UNK         0.5016 
     61 O          35.3057  -51.1088  -52.4732 O.2       2 UNK        -0.5319 
     62 CA         36.8408  -49.4124  -53.1935 C.3       2 UNK         0.0286 
     63 CB         37.9822  -50.1995  -53.8583 C.3       2 UNK        -0.1963 
     64 N          36.7577  -48.0795  -53.8030 N.am      2 UNK        -0.4790 
     65 C          36.1193  -47.0376  -53.2493 C.2       1 UNK         0.5024 
     66 O          35.6202  -47.0710  -52.1230 O.2       1 UNK        -0.4888 
     67 H67        40.4573  -44.9473  -53.6544 H         1 UNK         0.0892 
     68 H68        39.7083  -44.4683  -55.1784 H         1 UNK         0.0892 
     69 H69        39.8369  -43.3067  -53.8568 H         1 UNK         0.0892 
     70 H70        37.6588  -45.2839  -55.3942 H         1 UNK         0.3107 
     71 H71        35.6576  -46.0619  -55.0761 H         1 UNK         0.0773 
     72 H72        35.2786  -44.4802  -52.4853 H         1 UNK         0.0680 
     73 H73        35.3175  -43.7079  -54.0479 H         1 UNK         0.0680 
     74 H74        32.9663  -42.7554  -54.4092 H         1 UNK         0.0650 
     75 H75        32.8768  -43.0114  -52.6798 H         1 UNK         0.0650 
     76 H76        30.7861  -43.7276  -51.6181 H         1 UNK         0.1397 
     77 H77        27.2200  -43.8769  -54.0020 H         1 UNK         0.1363 
     78 H78        31.0444  -43.4006  -55.8840 H         1 UNK         0.1355 
     79 H79        29.1187  -43.8673  -57.2299 H         1 UNK         0.0707 
     80 H80        27.6405  -44.4269  -56.4782 H         1 UNK         0.0707 
     81 H81        27.3138  -41.1578  -59.0079 H         1 UNK         0.1034 
     82 H82        28.2064  -42.6476  -59.0988 H         1 UNK         0.1034 
     83 H83        25.2403  -42.5414  -58.3376 H         1 UNK         0.0482 
     84 H84        24.5508  -41.3956  -61.6265 H         1 UNK         0.3460 
     85 H85        24.4832  -41.0330  -59.9218 H         1 UNK         0.3460 
     86 H86        27.0607  -44.7915  -58.9336 H         1 UNK         0.2989 
     87 H87        24.7328  -47.0943  -57.6628 H         1 UNK         0.0559 
     88 H88        24.1338  -47.2456  -60.0629 H         1 UNK         0.0848 
     89 H89        25.2761  -48.5068  -59.6258 H         1 UNK         0.0848 
     90 H90        25.8216  -47.0899  -60.5240 H         1 UNK         0.0848 
     91 H91        26.7309  -47.5126  -56.9589 H         1 UNK         0.3144 
     92 H92        29.8676  -47.9267  -58.5378 H         1 UNK         0.0727 
     93 H93        29.1766  -46.4929  -55.9190 H         1 UNK         0.0790 
     94 H94        30.2756  -45.9130  -57.1699 H         1 UNK         0.0790 
     95 H95        30.6830  -47.3427  -56.2415 H         1 UNK         0.0790 
     96 H96        28.8069  -48.9844  -56.1110 H         1 UNK         0.3215 
     97 H97        27.1557  -51.8170  -57.5437 H         1 UNK         0.0863 
     98 H98        28.6090  -52.9167  -55.8634 H         1 UNK         0.0808 
     99 H99        29.6382  -51.4900  -55.7721 H         1 UNK         0.0808 
    100 H100       29.5552  -52.4232  -57.2580 H         1 UNK         0.0808 
    101 H101       27.5208  -50.5168  -54.9245 H         1 UNK         0.3118 
    102 H102       24.3060  -49.0802  -54.8664 H         1 UNK         0.0546 
    103 H103       25.1454  -51.6346  -53.3894 H         1 UNK         0.0828 
    104 H104       23.6844  -51.4417  -54.3472 H         1 UNK         0.0828 
    105 H105       23.8901  -50.5052  -52.8776 H         1 UNK         0.0828 
    106 H106       26.2850  -49.4995  -52.8306 H         1 UNK         0.3005 
    107 H107       28.2882  -46.6667  -53.5956 H         1 UNK         0.1257 
    108 H108       26.2508  -47.1060  -51.3499 H         1 UNK         0.0775 
    109 H109       26.2914  -45.7191  -52.4029 H         1 UNK         0.0775 
    110 H110       27.0630  -43.6167  -51.5596 H         1 UNK         0.0840 
    111 H111       28.5004  -43.3138  -50.6251 H         1 UNK         0.0840 
    112 H112       28.5494  -48.3878  -51.4369 H         1 UNK         0.2987 
    113 H113       30.4624  -49.7347  -51.4427 H         1 UNK         0.0785 
    114 H114       28.4127  -51.1750  -51.3846 H         1 UNK         0.0798 
    115 H115       29.8564  -52.1705  -51.4232 H         1 UNK         0.0798 
    116 H116       28.8927  -51.9573  -52.8843 H         1 UNK         0.0798 
    117 H117       31.1950  -51.5306  -53.6141 H         1 UNK         0.3079 
    118 H118       33.3876  -51.4987  -54.3346 H         1 UNK         0.0794 
    119 H119       33.5228  -50.4856  -56.6191 H         1 UNK         0.0786 
    120 H120       32.7786  -49.0007  -56.0235 H         1 UNK         0.0786 
    121 H121       31.8599  -50.4954  -56.0579 H         1 UNK         0.0786 
    122 H122       34.9159  -49.0724  -54.8396 H         1 UNK         0.3032 
    123 H123       37.0793  -49.2950  -52.1336 H         1 UNK         0.1094 
    124 H124       37.8058  -50.3469  -54.9246 H         1 UNK         0.0794 
    125 H125       38.9378  -49.6877  -53.7420 H         1 UNK         0.0794 
    126 H126       38.0890  -51.1869  -53.4067 H         1 UNK         0.0794 
    127 H127       37.1820  -47.9659  -54.7130 H         1 UNK         0.3016 
@<TRIPOS>BOND
     1    1    2 1    
     2    1   67 1    
     3    1   68 1    
     4    1   69 1    
     5    2    3 2    
     6    2    4 am   BACKBONE|DICT|INTERRES
     7    4    5 1    
     8    4   70 1    
     9    5    6 1    
    10    5   65 1    
    11    5   71 1    
    12    6    7 1    
    13    6   72 1    
    14    6   73 1    
    15    7    8 1    
    16    8    9 1    
    17    8   74 1    
    18    8   75 1    
    19    9   10 ar   
    20    9   14 ar   
    21   10   11 ar   
    22   10   76 1    
    23   11   12 ar   
    24   11   48 1    
    25   12   13 ar   
    26   12   77 1    
    27   13   14 ar   
    28   13   15 1    
    29   14   78 1    
    30   15   16 1    
    31   15   79 1    
    32   15   80 1    
    33   16   17 1    
    34   17   18 1    
    35   17   81 1    
    36   17   82 1    
    37   18   19 1    
    38   18   22 1    
    39   18   83 1    
    40   19   20 am   BACKBONE|DICT|INTERRES
    41   19   21 2    
    42   20   84 1    
    43   20   85 1    
    44   22   23 am   BACKBONE|DICT|INTERRES
    45   22   86 1    
    46   23   24 2    
    47   23   25 1    
    48   25   26 1    
    49   25   27 1    
    50   25   87 1    
    51   26   88 1    
    52   26   89 1    
    53   26   90 1    
    54   27   28 am   BACKBONE|DICT|INTERRES
    55   27   91 1    
    56   28   29 2    
    57   28   30 1    
    58   30   31 1    
    59   30   32 1    
    60   30   92 1    
    61   31   93 1    
    62   31   94 1    
    63   31   95 1    
    64   32   33 am   BACKBONE|DICT|INTERRES
    65   32   96 1    
    66   33   34 2    
    67   33   35 1    
    68   35   36 1    
    69   35   37 1    
    70   35   97 1    
    71   36   98 1    
    72   36   99 1    
    73   36  100 1    
    74   37   38 am   BACKBONE|DICT|INTERRES
    75   37  101 1    
    76   38   39 2    
    77   38   40 1    
    78   40   41 1    
    79   40   42 1    
    80   40  102 1    
    81   41  103 1    
    82   41  104 1    
    83   41  105 1    
    84   42   43 am   BACKBONE|DICT|INTERRES
    85   42  106 1    
    86   43   44 2    
    87   43   45 1    
    88   45   46 1    
    89   45   49 1    
    90   45  107 1    
    91   46   47 1    
    92   46  108 1    
    93   46  109 1    
    94   47   48 1    
    95   48  110 1    
    96   48  111 1    
    97   49   50 am   BACKBONE|DICT|INTERRES
    98   49  112 1    
    99   50   51 2    
   100   50   52 1    
   101   52   53 1    
   102   52   54 1    
   103   52  113 1    
   104   53  114 1    
   105   53  115 1    
   106   53  116 1    
   107   54   55 am   BACKBONE|DICT|INTERRES
   108   54  117 1    
   109   55   56 2    
   110   55   57 1    
   111   57   58 1    
   112   57   59 1    
   113   57  118 1    
   114   58  119 1    
   115   58  120 1    
   116   58  121 1    
   117   59   60 am   BACKBONE|DICT|INTERRES
   118   59  122 1    
   119   60   61 2    
   120   60   62 1    
   121   62   63 1    
   122   62   64 1    
   123   62  123 1    
   124   63  124 1    
   125   63  125 1    
   126   63  126 1    
   127   64   65 am   BACKBONE|DICT|INTERRES
   128   64  127 1    
   129   65   66 2    
@<TRIPOS>SUBSTRUCTURE
     1 UNK         1 GROUP             0       ****    0 ROOT    
