@<TRIPOS>MOLECULE
3R134
127   129    1
SMALL
USER_CHARGES


@<TRIPOS>ATOM
      1 CA         36.3498  -43.5928  -50.3905 C.3       0 UNK        -0.1968 
      2 C          35.3170  -44.2628  -51.2837 C.2       0 UNK         0.4852 
      3 O          35.5635  -44.4446  -52.4776 O.2       0 UNK        -0.5359 
      4 N          34.1597  -44.6342  -50.7201 N.am      1 UNK        -0.4300 
      5 CA         33.0565  -45.2989  -51.4214 C.3       1 UNK         0.0863 
      6 C6         31.6822  -44.9941  -50.7697 C.3       11 UNK        -0.0953 
      7 S7         31.2399  -43.2282  -50.5632 S.3       11 UNK        -0.2369 
      8 C8         31.9469  -42.3567  -52.0072 C.3       11 UNK         0.0226 
      9 C9         31.4713  -42.9051  -53.3480 C.ar      11 UNK        -0.0699 
     10 C10        32.4050  -43.2573  -54.3282 C.ar      11 UNK        -0.0804 
     11 C11        31.9942  -43.7888  -55.5534 C.ar      11 UNK        -0.0871 
     12 C12        30.6248  -43.9341  -55.8038 C.ar      11 UNK        -0.1008 
     13 C13        29.6783  -43.5712  -54.8411 C.ar      11 UNK        -0.0735 
     14 C14        30.1080  -43.0528  -53.6172 C.ar      11 UNK        -0.0945 
     15 C15        28.1923  -43.7576  -55.1056 C.3       11 UNK         0.0169 
     16 S16        27.4764  -42.3316  -55.9814 S.3       11 UNK        -0.2669 
     17 C17        27.7021  -42.8087  -57.7321 C.3       11 UNK        -0.0850 
     18 CA         26.4019  -43.3827  -58.3552 C.3       10 UNK         0.0855 
     19 C          26.5311  -43.5850  -59.8943 C.2       10 UNK         0.5543 
     20 N          26.1680  -44.7321  -60.4577 N.am      10 UNK        -0.7343 
     21 O          26.9593  -42.6739  -60.5984 O.2       10 UNK        -0.5027 
     22 N          25.9560  -44.5880  -57.6402 N.am      10 UNK        -0.4495 
     23 C          24.6824  -44.9133  -57.3963 C.2       10 UNK         0.4903 
     24 O          23.7203  -44.2067  -57.7025 O.2       10 UNK        -0.4860 
     25 CA         24.4580  -46.2672  -56.6947 C.3       9 UNK         0.0227 
     26 CB         23.0026  -46.7673  -56.8104 C.3       9 UNK        -0.1964 
     27 N          25.3958  -47.3138  -57.1254 N.am      9 UNK        -0.4231 
     28 C          25.5773  -47.7762  -58.3749 C.2       9 UNK         0.5014 
     29 O          25.0094  -47.3046  -59.3614 O.2       9 UNK        -0.5270 
     30 CA         26.5676  -48.9398  -58.5880 C.3       8 UNK         0.0284 
     31 CB         27.7793  -48.4704  -59.4113 C.3       8 UNK        -0.1977 
     32 N          27.0393  -49.5654  -57.3495 N.am      8 UNK        -0.4342 
     33 C          26.2883  -50.3084  -56.5240 C.2       8 UNK         0.5039 
     34 O          25.1244  -50.6310  -56.7639 O.2       8 UNK        -0.5547 
     35 CA         26.9219  -50.7279  -55.1847 C.3       7 UNK         0.0281 
     36 CB         27.5450  -52.1265  -55.3025 C.3       7 UNK        -0.1963 
     37 N          27.9235  -49.7818  -54.6773 N.am      7 UNK        -0.4444 
     38 C          27.6812  -48.5021  -54.3528 C.2       7 UNK         0.5104 
     39 O          26.5805  -47.9618  -54.4628 O.2       7 UNK        -0.5100 
     40 CA         28.8839  -47.6739  -53.8738 C.3       6 UNK         0.0396 
     41 CB         29.2257  -48.0006  -52.4115 C.3       6 UNK        -0.1801 
     42 N          30.0574  -47.8916  -54.7201 N.am      6 UNK        -0.4747 
     43 C          30.1603  -47.4717  -55.9904 C.2       6 UNK         0.5012 
     44 O          29.2895  -46.8203  -56.5681 O.2       6 UNK        -0.5003 
     45 CA         31.4187  -47.9159  -56.7621 C.3       5 UNK         0.0782 
     46 C46        32.6255  -46.9732  -56.5172 C.3       11 UNK        -0.0868 
     47 S47        32.6185  -45.5640  -57.6753 S.3       11 UNK        -0.2515 
     48 C48        33.0530  -44.1601  -56.5914 C.3       11 UNK         0.0199 
     49 N          31.7496  -49.3165  -56.4843 N.am      5 UNK        -0.4607 
     50 C          30.9922  -50.3525  -56.8742 C.2       4 UNK         0.5031 
     51 O          29.9579  -50.2309  -57.5289 O.2       4 UNK        -0.5119 
     52 CA         31.4336  -51.7598  -56.4391 C.3       4 UNK         0.0263 
     53 CB         32.3529  -52.3821  -57.5016 C.3       4 UNK        -0.1967 
     54 N          32.1005  -51.8014  -55.1372 N.am      4 UNK        -0.4237 
     55 C          31.5930  -51.3635  -53.9760 C.2       3 UNK         0.4908 
     56 O          30.4714  -50.8692  -53.8582 O.2       3 UNK        -0.5102 
     57 CA         32.5006  -51.4854  -52.7388 C.3       3 UNK         0.0241 
     58 CB         33.4694  -52.6857  -52.8200 C.3       3 UNK        -0.1971 
     59 N          33.2602  -50.2699  -52.4130 N.am      3 UNK        -0.4139 
     60 C          33.9403  -49.4533  -53.2331 C.2       2 UNK         0.5016 
     61 O          33.8643  -49.4637  -54.4642 O.2       2 UNK        -0.5319 
     62 CA         34.9109  -48.4746  -52.5488 C.3       2 UNK         0.0286 
     63 CB         36.2259  -48.3478  -53.3386 C.3       2 UNK        -0.1963 
     64 N          34.3487  -47.1392  -52.3658 N.am      2 UNK        -0.4790 
     65 C          33.3459  -46.8093  -51.5435 C.2       1 UNK         0.5024 
     66 O          32.7201  -47.6260  -50.8659 O.2       1 UNK        -0.4888 
     67 H67        37.2681  -44.1792  -50.3746 H         1 UNK         0.0892 
     68 H68        35.9958  -43.4878  -49.3651 H         1 UNK         0.0892 
     69 H69        36.5857  -42.5995  -50.7711 H         1 UNK         0.0892 
     70 H70        34.0139  -44.4784  -49.7327 H         1 UNK         0.3107 
     71 H71        33.0226  -44.9367  -52.4450 H         1 UNK         0.0773 
     72 H72        31.6181  -45.4571  -49.7833 H         1 UNK         0.0680 
     73 H73        30.8880  -45.4439  -51.3655 H         1 UNK         0.0680 
     74 H74        31.6613  -41.3060  -51.9456 H         1 UNK         0.0650 
     75 H75        33.0347  -42.3745  -51.9394 H         1 UNK         0.0650 
     76 H76        33.4612  -43.1313  -54.1287 H         1 UNK         0.1397 
     77 H77        30.2927  -44.3404  -56.7473 H         1 UNK         0.1363 
     78 H78        29.3811  -42.7731  -52.8669 H         1 UNK         0.1355 
     79 H79        28.0185  -44.6749  -55.6678 H         1 UNK         0.0707 
     80 H80        27.6619  -43.8851  -54.1607 H         1 UNK         0.0707 
     81 H81        28.5200  -43.5213  -57.8338 H         1 UNK         0.1034 
     82 H82        28.0194  -41.9130  -58.2695 H         1 UNK         0.1034 
     83 H83        25.6355  -42.6140  -58.2398 H         1 UNK         0.0482 
     84 H84        25.7719  -45.4879  -59.9107 H         1 UNK         0.3460 
     85 H85        26.2559  -44.8341  -61.4560 H         1 UNK         0.3460 
     86 H86        26.6775  -45.2450  -57.3822 H         1 UNK         0.2989 
     87 H87        24.6637  -46.0959  -55.6371 H         1 UNK         0.0559 
     88 H88        22.8664  -47.7141  -56.2877 H         1 UNK         0.0848 
     89 H89        22.7070  -46.9128  -57.8500 H         1 UNK         0.0848 
     90 H90        22.3056  -46.0528  -56.3708 H         1 UNK         0.0848 
     91 H91        25.9286  -47.7410  -56.3734 H         1 UNK         0.3144 
     92 H92        26.0412  -49.7019  -59.1661 H         1 UNK         0.0727 
     93 H93        28.4494  -49.2993  -59.6396 H         1 UNK         0.0790 
     94 H94        28.3549  -47.7082  -58.8860 H         1 UNK         0.0790 
     95 H95        27.4651  -48.0405  -60.3634 H         1 UNK         0.0790 
     96 H96        28.0162  -49.4255  -57.1150 H         1 UNK         0.3215 
     97 H97        26.1200  -50.7734  -54.4447 H         1 UNK         0.0863 
     98 H98        28.0140  -52.4386  -54.3690 H         1 UNK         0.0808 
     99 H99        28.2973  -52.1616  -56.0891 H         1 UNK         0.0808 
    100 H100       26.7854  -52.8693  -55.5496 H         1 UNK         0.0808 
    101 H101       28.8603  -50.1465  -54.5144 H         1 UNK         0.3118 
    102 H102       28.6178  -46.6164  -53.9320 H         1 UNK         0.0546 
    103 H103       28.4056  -47.7183  -51.7503 H         1 UNK         0.0828 
    104 H104       30.1119  -47.4636  -52.0792 H         1 UNK         0.0828 
    105 H105       29.4120  -49.0638  -52.2593 H         1 UNK         0.0828 
    106 H106       30.7799  -48.4944  -54.3510 H         1 UNK         0.3005 
    107 H107       31.1611  -47.8741  -57.8236 H         1 UNK         0.1257 
    108 H108       33.5628  -47.5065  -56.6851 H         1 UNK         0.0775 
    109 H109       32.6676  -46.6280  -55.4819 H         1 UNK         0.0775 
    110 H110       34.0010  -44.3889  -56.1012 H         1 UNK         0.0840 
    111 H111       33.2354  -43.2864  -57.2183 H         1 UNK         0.0840 
    112 H112       32.5663  -49.4880  -55.9019 H         1 UNK         0.2987 
    113 H113       30.5397  -52.3792  -56.3632 H         1 UNK         0.0785 
    114 H114       33.2875  -51.8283  -57.6010 H         1 UNK         0.0798 
    115 H115       31.8707  -52.3863  -58.4803 H         1 UNK         0.0798 
    116 H116       32.5980  -53.4164  -57.2596 H         1 UNK         0.0798 
    117 H117       33.0477  -52.1503  -55.1297 H         1 UNK         0.3079 
    118 H118       31.8307  -51.6637  -51.8961 H         1 UNK         0.0794 
    119 H119       34.2618  -52.5295  -53.5529 H         1 UNK         0.0786 
    120 H120       32.9432  -53.6039  -53.0860 H         1 UNK         0.0786 
    121 H121       33.9489  -52.8635  -51.8572 H         1 UNK         0.0786 
    122 H122       33.3222  -50.0682  -51.4240 H         1 UNK         0.3032 
    123 H123       35.1600  -48.8730  -51.5625 H         1 UNK         0.1094 
    124 H124       36.0678  -47.8950  -54.3186 H         1 UNK         0.0794 
    125 H125       36.9540  -47.7385  -52.8027 H         1 UNK         0.0794 
    126 H126       36.6798  -49.3264  -53.5016 H         1 UNK         0.0794 
    127 H127       34.8323  -46.3772  -52.8299 H         1 UNK         0.3016 
@<TRIPOS>BOND
     1    1    2 1    
     2    1   67 1    
     3    1   68 1    
     4    1   69 1    
     5    2    3 2    
     6    2    4 am   BACKBONE|DICT|INTERRES
     7    4    5 1    
     8    4   70 1    
     9    5    6 1    
    10    5   65 1    
    11    5   71 1    
    12    6    7 1    
    13    6   72 1    
    14    6   73 1    
    15    7    8 1    
    16    8    9 1    
    17    8   74 1    
    18    8   75 1    
    19    9   10 ar   
    20    9   14 ar   
    21   10   11 ar   
    22   10   76 1    
    23   11   12 ar   
    24   11   48 1    
    25   12   13 ar   
    26   12   77 1    
    27   13   14 ar   
    28   13   15 1    
    29   14   78 1    
    30   15   16 1    
    31   15   79 1    
    32   15   80 1    
    33   16   17 1    
    34   17   18 1    
    35   17   81 1    
    36   17   82 1    
    37   18   19 1    
    38   18   22 1    
    39   18   83 1    
    40   19   20 am   BACKBONE|DICT|INTERRES
    41   19   21 2    
    42   20   84 1    
    43   20   85 1    
    44   22   23 am   BACKBONE|DICT|INTERRES
    45   22   86 1    
    46   23   24 2    
    47   23   25 1    
    48   25   26 1    
    49   25   27 1    
    50   25   87 1    
    51   26   88 1    
    52   26   89 1    
    53   26   90 1    
    54   27   28 am   BACKBONE|DICT|INTERRES
    55   27   91 1    
    56   28   29 2    
    57   28   30 1    
    58   30   31 1    
    59   30   32 1    
    60   30   92 1    
    61   31   93 1    
    62   31   94 1    
    63   31   95 1    
    64   32   33 am   BACKBONE|DICT|INTERRES
    65   32   96 1    
    66   33   34 2    
    67   33   35 1    
    68   35   36 1    
    69   35   37 1    
    70   35   97 1    
    71   36   98 1    
    72   36   99 1    
    73   36  100 1    
    74   37   38 am   BACKBONE|DICT|INTERRES
    75   37  101 1    
    76   38   39 2    
    77   38   40 1    
    78   40   41 1    
    79   40   42 1    
    80   40  102 1    
    81   41  103 1    
    82   41  104 1    
    83   41  105 1    
    84   42   43 am   BACKBONE|DICT|INTERRES
    85   42  106 1    
    86   43   44 2    
    87   43   45 1    
    88   45   46 1    
    89   45   49 1    
    90   45  107 1    
    91   46   47 1    
    92   46  108 1    
    93   46  109 1    
    94   47   48 1    
    95   48  110 1    
    96   48  111 1    
    97   49   50 am   BACKBONE|DICT|INTERRES
    98   49  112 1    
    99   50   51 2    
   100   50   52 1    
   101   52   53 1    
   102   52   54 1    
   103   52  113 1    
   104   53  114 1    
   105   53  115 1    
   106   53  116 1    
   107   54   55 am   BACKBONE|DICT|INTERRES
   108   54  117 1    
   109   55   56 2    
   110   55   57 1    
   111   57   58 1    
   112   57   59 1    
   113   57  118 1    
   114   58  119 1    
   115   58  120 1    
   116   58  121 1    
   117   59   60 am   BACKBONE|DICT|INTERRES
   118   59  122 1    
   119   60   61 2    
   120   60   62 1    
   121   62   63 1    
   122   62   64 1    
   123   62  123 1    
   124   63  124 1    
   125   63  125 1    
   126   63  126 1    
   127   64   65 am   BACKBONE|DICT|INTERRES
   128   64  127 1    
   129   65   66 2    
@<TRIPOS>SUBSTRUCTURE
     1 UNK         1 GROUP             0       ****    0 ROOT    
