@<TRIPOS>MOLECULE
3R134
127   129    1
SMALL
USER_CHARGES


@<TRIPOS>ATOM
      1 CA         30.8099  -46.3600  -54.9123 C.3       0 UNK        -0.1968 
      2 C          32.2420  -46.1712  -55.3733 C.2       0 UNK         0.4852 
      3 O          32.4993  -46.1482  -56.5784 O.2       0 UNK        -0.5359 
      4 N          33.1700  -46.0601  -54.4119 N.am      1 UNK        -0.4300 
      5 CA         34.6189  -45.8506  -54.5458 C.3       1 UNK         0.0863 
      6 C6         34.9958  -44.5164  -55.2384 C.3       11 UNK        -0.0953 
      7 S7         34.6765  -43.0773  -54.1622 S.3       11 UNK        -0.2369 
      8 C8         33.1330  -42.3734  -54.8406 C.3       11 UNK         0.0226 
      9 C9         31.8497  -42.7868  -54.1160 C.ar      11 UNK        -0.0699 
     10 C10        31.8240  -43.0825  -52.7453 C.ar      11 UNK        -0.0804 
     11 C11        30.6177  -43.3765  -52.0994 C.ar      11 UNK        -0.0871 
     12 C12        29.4293  -43.3660  -52.8315 C.ar      11 UNK        -0.1008 
     13 C13        29.4376  -43.1026  -54.2036 C.ar      11 UNK        -0.0735 
     14 C14        30.6490  -42.8021  -54.8335 C.ar      11 UNK        -0.0945 
     15 C15        28.1412  -43.1202  -55.0042 C.3       11 UNK         0.0169 
     16 S16        27.1550  -44.6188  -54.6835 S.3       11 UNK        -0.2669 
     17 C17        25.9666  -44.5741  -56.0664 C.3       11 UNK        -0.0850 
     18 CA         26.2404  -45.7218  -57.0761 C.3       10 UNK         0.0855 
     19 C          25.1047  -45.9208  -58.1254 C.2       10 UNK         0.5543 
     20 N          25.3934  -46.4274  -59.3196 N.am      10 UNK        -0.7343 
     21 O          23.9402  -45.6453  -57.8473 O.2       10 UNK        -0.5027 
     22 N          27.5951  -45.6753  -57.6478 N.am      10 UNK        -0.4495 
     23 C          28.0738  -44.7665  -58.5096 C.2       10 UNK         0.4903 
     24 O          27.4642  -43.7522  -58.8492 O.2       10 UNK        -0.4860 
     25 CA         29.4595  -45.0440  -59.1285 C.3       9 UNK         0.0227 
     26 CB         30.5288  -44.1538  -58.4774 C.3       9 UNK        -0.1964 
     27 N          29.8753  -46.4489  -59.0406 N.am      9 UNK        -0.4231 
     28 C          29.2385  -47.4750  -59.6268 C.2       9 UNK         0.5014 
     29 O          28.2725  -47.3401  -60.3810 O.2       9 UNK        -0.5270 
     30 CA         29.6976  -48.8990  -59.2607 C.3       8 UNK         0.0284 
     31 CB         31.1238  -48.9646  -58.6674 C.3       8 UNK        -0.1977 
     32 N          28.7230  -49.5551  -58.3753 N.am      8 UNK        -0.4342 
     33 C          28.3068  -49.1092  -57.1808 C.2       8 UNK         0.5039 
     34 O          28.7368  -48.0830  -56.6493 O.2       8 UNK        -0.5547 
     35 CA         27.2203  -49.9261  -56.4674 C.3       7 UNK         0.0281 
     36 CB         27.7277  -51.3268  -56.0769 C.3       7 UNK        -0.1963 
     37 N          26.8299  -49.2075  -55.2579 N.am      7 UNK        -0.4444 
     38 C          25.6216  -49.2054  -54.6806 C.2       7 UNK         0.5104 
     39 O          24.6541  -49.8097  -55.1453 O.2       7 UNK        -0.5100 
     40 CA         25.4589  -48.4205  -53.3601 C.3       6 UNK         0.0396 
     41 CB         24.6060  -49.1905  -52.3321 C.3       6 UNK        -0.1801 
     42 N          26.7599  -48.0849  -52.7833 N.am      6 UNK        -0.4747 
     43 C          27.0500  -47.1175  -51.9089 C.2       6 UNK         0.5012 
     44 O          26.1941  -46.4121  -51.3722 O.2       6 UNK        -0.5003 
     45 CA         28.5552  -46.8996  -51.5985 C.3       5 UNK         0.0782 
     46 C46        28.7957  -45.8886  -50.4457 C.3       11 UNK        -0.0868 
     47 S47        30.5644  -45.4585  -50.2512 S.3       11 UNK        -0.2515 
     48 C48        30.5908  -43.6699  -50.6053 C.3       11 UNK         0.0199 
     49 N          29.3090  -48.1457  -51.3713 N.am      5 UNK        -0.4607 
     50 C          29.6370  -49.0648  -52.2863 C.2       4 UNK         0.5031 
     51 O          29.2216  -49.0505  -53.4462 O.2       4 UNK        -0.5119 
     52 CA         30.5469  -50.2150  -51.8204 C.3       4 UNK         0.0263 
     53 CB         29.7051  -51.3341  -51.1861 C.3       4 UNK        -0.1967 
     54 N          31.3196  -50.7720  -52.9352 N.am      4 UNK        -0.4237 
     55 C          32.2345  -50.0878  -53.6346 C.2       3 UNK         0.4908 
     56 O          32.6388  -48.9654  -53.3147 O.2       3 UNK        -0.5102 
     57 CA         32.7704  -50.7559  -54.9111 C.3       3 UNK         0.0241 
     58 CB         31.6365  -51.2553  -55.8293 C.3       3 UNK        -0.1971 
     59 N          33.5773  -49.7699  -55.6191 N.am      3 UNK        -0.4139 
     60 C          34.6060  -49.9965  -56.4414 C.2       2 UNK         0.5016 
     61 O          34.9823  -51.1213  -56.7733 O.2       2 UNK        -0.5319 
     62 CA         35.3459  -48.7570  -56.9861 C.3       2 UNK         0.0286 
     63 CB         35.1511  -48.6226  -58.5048 C.3       2 UNK        -0.1963 
     64 N          34.9076  -47.5139  -56.3413 N.am      2 UNK        -0.4790 
     65 C          35.3547  -47.0580  -55.1655 C.2       1 UNK         0.5024 
     66 O          36.2888  -47.5758  -54.5523 O.2       1 UNK        -0.4888 
     67 H67        30.6691  -45.9736  -53.9047 H         1 UNK         0.0892 
     68 H68        30.1141  -45.8429  -55.5718 H         1 UNK         0.0892 
     69 H69        30.5625  -47.4195  -54.9180 H         1 UNK         0.0892 
     70 H70        32.8611  -46.1569  -53.4545 H         1 UNK         0.3107 
     71 H71        34.9862  -45.7959  -53.5194 H         1 UNK         0.0773 
     72 H72        34.4869  -44.4032  -56.1963 H         1 UNK         0.0680 
     73 H73        36.0630  -44.4946  -55.4673 H         1 UNK         0.0680 
     74 H74        33.0632  -42.6128  -55.9027 H         1 UNK         0.0650 
     75 H75        33.2091  -41.2871  -54.7812 H         1 UNK         0.0650 
     76 H76        32.7389  -43.0627  -52.1702 H         1 UNK         0.1397 
     77 H77        28.4901  -43.5704  -52.3383 H         1 UNK         0.1363 
     78 H78        30.6566  -42.5612  -55.8872 H         1 UNK         0.1355 
     79 H79        27.5500  -42.2388  -54.7526 H         1 UNK         0.0707 
     80 H80        28.3577  -43.0599  -56.0714 H         1 UNK         0.0707 
     81 H81        24.9683  -44.6712  -55.6362 H         1 UNK         0.1034 
     82 H82        25.9872  -43.6030  -56.5633 H         1 UNK         0.1034 
     83 H83        26.2178  -46.6482  -56.5023 H         1 UNK         0.0482 
     84 H84        26.3466  -46.6611  -59.5674 H         1 UNK         0.3460 
     85 H85        24.6528  -46.5625  -59.9892 H         1 UNK         0.3460 
     86 H86        28.1804  -46.4704  -57.3996 H         1 UNK         0.2989 
     87 H87        29.3993  -44.7846  -60.1873 H         1 UNK         0.0559 
     88 H88        30.6328  -44.3689  -57.4150 H         1 UNK         0.0848 
     89 H89        30.2715  -43.0981  -58.5734 H         1 UNK         0.0848 
     90 H90        31.5043  -44.2942  -58.9431 H         1 UNK         0.0848 
     91 H91        30.6247  -46.6584  -58.3938 H         1 UNK         0.3144 
     92 H92        29.7053  -49.4645  -60.1937 H         1 UNK         0.0727 
     93 H93        31.4568  -49.9973  -58.5702 H         1 UNK         0.0790 
     94 H94        31.1937  -48.5023  -57.6820 H         1 UNK         0.0790 
     95 H95        31.8371  -48.4626  -59.3215 H         1 UNK         0.0790 
     96 H96        28.2871  -50.3851  -58.7530 H         1 UNK         0.3215 
     97 H97        26.3648  -50.0112  -57.1407 H         1 UNK         0.0863 
     98 H98        26.9454  -51.9060  -55.5861 H         1 UNK         0.0808 
     99 H99        28.5736  -51.2657  -55.3909 H         1 UNK         0.0808 
    100 H100       28.0502  -51.8967  -56.9486 H         1 UNK         0.0808 
    101 H101       27.5786  -48.6281  -54.8921 H         1 UNK         0.3118 
    102 H102       24.9484  -47.4891  -53.6130 H         1 UNK         0.0546 
    103 H103       25.0754  -50.1340  -52.0518 H         1 UNK         0.0828 
    104 H104       23.6183  -49.4219  -52.7326 H         1 UNK         0.0828 
    105 H105       24.4519  -48.6096  -51.4230 H         1 UNK         0.0828 
    106 H106       27.5536  -48.6225  -53.1304 H         1 UNK         0.3005 
    107 H107       28.9518  -46.4432  -52.5064 H         1 UNK         0.1257 
    108 H108       28.4410  -46.3048  -49.5012 H         1 UNK         0.0775 
    109 H109       28.2199  -44.9754  -50.5974 H         1 UNK         0.0775 
    110 H110       29.7339  -43.1824  -50.1377 H         1 UNK         0.0840 
    111 H111       31.4725  -43.2388  -50.1287 H         1 UNK         0.0840 
    112 H112       29.6714  -48.2557  -50.4355 H         1 UNK         0.2987 
    113 H113       31.2488  -49.8287  -51.0782 H         1 UNK         0.0785 
    114 H114       30.3334  -52.1497  -50.8275 H         1 UNK         0.0798 
    115 H115       28.9866  -51.7490  -51.8947 H         1 UNK         0.0798 
    116 H116       29.1398  -50.9634  -50.3300 H         1 UNK         0.0798 
    117 H117       31.0268  -51.6751  -53.2765 H         1 UNK         0.3079 
    118 H118       33.4040  -51.5940  -54.6140 H         1 UNK         0.0794 
    119 H119       31.0799  -52.0727  -55.3709 H         1 UNK         0.0786 
    120 H120       32.0274  -51.6320  -56.7745 H         1 UNK         0.0786 
    121 H121       30.9260  -50.4585  -56.0535 H         1 UNK         0.0786 
    122 H122       33.3968  -48.8164  -55.3318 H         1 UNK         0.3032 
    123 H123       36.4102  -48.9075  -56.7908 H         1 UNK         0.1094 
    124 H124       35.7377  -47.7964  -58.9067 H         1 UNK         0.0794 
    125 H125       35.4695  -49.5277  -59.0240 H         1 UNK         0.0794 
    126 H126       34.1074  -48.4474  -58.7621 H         1 UNK         0.0794 
    127 H127       34.0998  -47.0368  -56.7411 H         1 UNK         0.3016 
@<TRIPOS>BOND
     1    1    2 1    
     2    1   67 1    
     3    1   68 1    
     4    1   69 1    
     5    2    3 2    
     6    2    4 am   BACKBONE|DICT|INTERRES
     7    4    5 1    
     8    4   70 1    
     9    5    6 1    
    10    5   65 1    
    11    5   71 1    
    12    6    7 1    
    13    6   72 1    
    14    6   73 1    
    15    7    8 1    
    16    8    9 1    
    17    8   74 1    
    18    8   75 1    
    19    9   10 ar   
    20    9   14 ar   
    21   10   11 ar   
    22   10   76 1    
    23   11   12 ar   
    24   11   48 1    
    25   12   13 ar   
    26   12   77 1    
    27   13   14 ar   
    28   13   15 1    
    29   14   78 1    
    30   15   16 1    
    31   15   79 1    
    32   15   80 1    
    33   16   17 1    
    34   17   18 1    
    35   17   81 1    
    36   17   82 1    
    37   18   19 1    
    38   18   22 1    
    39   18   83 1    
    40   19   20 am   BACKBONE|DICT|INTERRES
    41   19   21 2    
    42   20   84 1    
    43   20   85 1    
    44   22   23 am   BACKBONE|DICT|INTERRES
    45   22   86 1    
    46   23   24 2    
    47   23   25 1    
    48   25   26 1    
    49   25   27 1    
    50   25   87 1    
    51   26   88 1    
    52   26   89 1    
    53   26   90 1    
    54   27   28 am   BACKBONE|DICT|INTERRES
    55   27   91 1    
    56   28   29 2    
    57   28   30 1    
    58   30   31 1    
    59   30   32 1    
    60   30   92 1    
    61   31   93 1    
    62   31   94 1    
    63   31   95 1    
    64   32   33 am   BACKBONE|DICT|INTERRES
    65   32   96 1    
    66   33   34 2    
    67   33   35 1    
    68   35   36 1    
    69   35   37 1    
    70   35   97 1    
    71   36   98 1    
    72   36   99 1    
    73   36  100 1    
    74   37   38 am   BACKBONE|DICT|INTERRES
    75   37  101 1    
    76   38   39 2    
    77   38   40 1    
    78   40   41 1    
    79   40   42 1    
    80   40  102 1    
    81   41  103 1    
    82   41  104 1    
    83   41  105 1    
    84   42   43 am   BACKBONE|DICT|INTERRES
    85   42  106 1    
    86   43   44 2    
    87   43   45 1    
    88   45   46 1    
    89   45   49 1    
    90   45  107 1    
    91   46   47 1    
    92   46  108 1    
    93   46  109 1    
    94   47   48 1    
    95   48  110 1    
    96   48  111 1    
    97   49   50 am   BACKBONE|DICT|INTERRES
    98   49  112 1    
    99   50   51 2    
   100   50   52 1    
   101   52   53 1    
   102   52   54 1    
   103   52  113 1    
   104   53  114 1    
   105   53  115 1    
   106   53  116 1    
   107   54   55 am   BACKBONE|DICT|INTERRES
   108   54  117 1    
   109   55   56 2    
   110   55   57 1    
   111   57   58 1    
   112   57   59 1    
   113   57  118 1    
   114   58  119 1    
   115   58  120 1    
   116   58  121 1    
   117   59   60 am   BACKBONE|DICT|INTERRES
   118   59  122 1    
   119   60   61 2    
   120   60   62 1    
   121   62   63 1    
   122   62   64 1    
   123   62  123 1    
   124   63  124 1    
   125   63  125 1    
   126   63  126 1    
   127   64   65 am   BACKBONE|DICT|INTERRES
   128   64  127 1    
   129   65   66 2    
@<TRIPOS>SUBSTRUCTURE
     1 UNK         1 GROUP             0       ****    0 ROOT    
