@<TRIPOS>MOLECULE
3R134
127   129    1
SMALL
USER_CHARGES


@<TRIPOS>ATOM
      1 CA         35.0068  -50.7117  -57.6506 C.3       0 UNK        -0.1968 
      2 C          34.2105  -50.0338  -56.5470 C.2       0 UNK         0.4852 
      3 O          34.2593  -50.4734  -55.3936 O.2       0 UNK        -0.5359 
      4 N          33.4871  -48.9509  -56.8751 N.am      1 UNK        -0.4300 
      5 CA         32.6434  -48.2253  -55.9186 C.3       1 UNK         0.0863 
      6 C6         31.5829  -47.3086  -56.5705 C.3       11 UNK        -0.0953 
      7 S7         32.2238  -45.9383  -57.5978 S.3       11 UNK        -0.2369 
      8 C8         32.5554  -44.5594  -56.4360 C.3       11 UNK         0.0226 
      9 C9         31.5422  -44.3845  -55.3057 C.ar      11 UNK        -0.0699 
     10 C10        31.9986  -44.2702  -53.9886 C.ar      11 UNK        -0.0804 
     11 C11        31.1003  -44.1513  -52.9259 C.ar      11 UNK        -0.0871 
     12 C12        29.7280  -44.1174  -53.1904 C.ar      11 UNK        -0.1008 
     13 C13        29.2540  -44.2318  -54.5009 C.ar      11 UNK        -0.0735 
     14 C14        30.1661  -44.3439  -55.5564 C.ar      11 UNK        -0.0945 
     15 C15        27.7557  -44.2996  -54.7569 C.3       11 UNK         0.0169 
     16 S16        26.9937  -42.6513  -54.8749 S.3       11 UNK        -0.2669 
     17 C17        27.3230  -42.1966  -56.6127 C.3       11 UNK        -0.0850 
     18 CA         26.1002  -42.4380  -57.5393 C.3       10 UNK         0.0855 
     19 C          26.3575  -41.8486  -58.9587 C.2       10 UNK         0.5543 
     20 N          26.4051  -42.6430  -60.0225 N.am      10 UNK        -0.7343 
     21 O          26.5134  -40.6378  -59.0957 O.2       10 UNK        -0.5027 
     22 N          25.6915  -43.8508  -57.5350 N.am      10 UNK        -0.4495 
     23 C          24.5002  -44.3209  -57.9245 C.2       10 UNK         0.4903 
     24 O          23.5486  -43.6011  -58.2310 O.2       10 UNK        -0.4860 
     25 CA         24.3595  -45.8587  -57.9881 C.3       9 UNK         0.0227 
     26 CB         23.2896  -46.3115  -59.0039 C.3       9 UNK        -0.1964 
     27 N          25.6296  -46.5652  -58.2268 N.am      9 UNK        -0.4231 
     28 C          26.4622  -46.3996  -59.2700 C.2       9 UNK         0.5014 
     29 O          26.2408  -45.6138  -60.1927 O.2       9 UNK        -0.5270 
     30 CA         27.7917  -47.1778  -59.2746 C.3       8 UNK         0.0284 
     31 CB         28.9838  -46.2071  -59.2984 C.3       8 UNK        -0.1977 
     32 N          27.9447  -48.0867  -58.1347 N.am      8 UNK        -0.4342 
     33 C          27.5227  -49.3567  -58.1201 C.2       8 UNK         0.5039 
     34 O          26.9770  -49.9085  -59.0764 O.2       8 UNK        -0.5547 
     35 CA         27.7302  -50.1481  -56.8161 C.3       7 UNK         0.0281 
     36 CB         29.0760  -50.8918  -56.8525 C.3       7 UNK        -0.1963 
     37 N          27.6462  -49.3687  -55.5726 N.am      7 UNK        -0.4444 
     38 C          26.5970  -48.6222  -55.1840 C.2       7 UNK         0.5104 
     39 O          25.6418  -48.3574  -55.9130 O.2       7 UNK        -0.5100 
     40 CA         26.6009  -48.0749  -53.7477 C.3       6 UNK         0.0396 
     41 CB         25.8217  -49.0491  -52.8393 C.3       6 UNK        -0.1801 
     42 N          27.9715  -47.8696  -53.2791 N.am      6 UNK        -0.4747 
     43 C          28.3982  -47.4596  -52.0815 C.2       6 UNK         0.5012 
     44 O          27.6496  -47.1754  -51.1449 O.2       6 UNK        -0.5003 
     45 CA         29.9341  -47.3494  -51.9181 C.3       5 UNK         0.0782 
     46 C46        30.3162  -46.4701  -50.6948 C.3       11 UNK        -0.0868 
     47 S47        31.9882  -45.7595  -50.8356 S.3       11 UNK        -0.2515 
     48 C48        31.6188  -44.0954  -51.4941 C.3       11 UNK         0.0199 
     49 N          30.6046  -48.6615  -51.8885 N.am      5 UNK        -0.4607 
     50 C          30.6626  -49.5467  -52.8948 C.2       4 UNK         0.5031 
     51 O          30.1180  -49.3770  -53.9894 O.2       4 UNK        -0.5119 
     52 CA         31.4802  -50.8262  -52.6533 C.3       4 UNK         0.0263 
     53 CB         31.1650  -51.9193  -53.6918 C.3       4 UNK        -0.1967 
     54 N          32.9162  -50.5473  -52.7012 N.am      4 UNK        -0.4237 
     55 C          33.6721  -50.2617  -51.6317 C.2       3 UNK         0.4908 
     56 O          33.2233  -50.1391  -50.4913 O.2       3 UNK        -0.5102 
     57 CA         35.1806  -50.0939  -51.8720 C.3       3 UNK         0.0241 
     58 CB         35.8311  -51.4316  -52.2655 C.3       3 UNK        -0.1971 
     59 N          35.4158  -49.1059  -52.9214 N.am      3 UNK        -0.4139 
     60 C          35.7183  -47.8177  -52.7012 C.2       2 UNK         0.5016 
     61 O          36.0186  -47.3593  -51.5981 O.2       2 UNK        -0.5319 
     62 CA         35.6543  -46.8656  -53.9143 C.3       2 UNK         0.0286 
     63 CB         37.0531  -46.6571  -54.5159 C.3       2 UNK        -0.1963 
     64 N          34.7394  -47.3205  -54.9672 N.am      2 UNK        -0.4790 
     65 C          33.4238  -47.5213  -54.7922 C.2       1 UNK         0.5024 
     66 O          32.8353  -47.2309  -53.7565 O.2       1 UNK        -0.4888 
     67 H67        34.6844  -51.7467  -57.7610 H         1 UNK         0.0892 
     68 H68        34.8805  -50.2119  -58.6107 H         1 UNK         0.0892 
     69 H69        36.0677  -50.7097  -57.4023 H         1 UNK         0.0892 
     70 H70        33.4841  -48.6037  -57.8243 H         1 UNK         0.3107 
     71 H71        32.0797  -49.0075  -55.4143 H         1 UNK         0.0773 
     72 H72        30.9554  -47.9171  -57.2226 H         1 UNK         0.0680 
     73 H73        30.8996  -46.9313  -55.8101 H         1 UNK         0.0680 
     74 H74        32.5990  -43.6319  -57.0079 H         1 UNK         0.0650 
     75 H75        33.5561  -44.7057  -56.0268 H         1 UNK         0.0650 
     76 H76        33.0588  -44.3142  -53.7806 H         1 UNK         0.1397 
     77 H77        29.0239  -44.0349  -52.3736 H         1 UNK         0.1363 
     78 H78        29.8109  -44.4373  -56.5714 H         1 UNK         0.1355 
     79 H79        27.5471  -44.8803  -55.6556 H         1 UNK         0.0707 
     80 H80        27.2763  -44.8391  -53.9386 H         1 UNK         0.0707 
     81 H81        27.5966  -41.1396  -56.6176 H         1 UNK         0.1034 
     82 H82        28.2000  -42.7285  -56.9826 H         1 UNK         0.1034 
     83 H83        25.2663  -41.8635  -57.1311 H         1 UNK         0.0482 
     84 H84        26.5691  -42.2358  -60.9291 H         1 UNK         0.3460 
     85 H85        26.2735  -43.6460  -59.9416 H         1 UNK         0.3460 
     86 H86        26.4103  -44.5191  -57.3122 H         1 UNK         0.2989 
     87 H87        24.0250  -46.1698  -56.9974 H         1 UNK         0.0559 
     88 H88        22.3099  -45.9040  -58.7514 H         1 UNK         0.0848 
     89 H89        23.1919  -47.3969  -59.0191 H         1 UNK         0.0848 
     90 H90        23.5276  -45.9815  -60.0157 H         1 UNK         0.0848 
     91 H91        25.8681  -47.2552  -57.5191 H         1 UNK         0.3144 
     92 H92        27.8163  -47.7538  -60.2022 H         1 UNK         0.0727 
     93 H93        29.0276  -45.5965  -58.3977 H         1 UNK         0.0790 
     94 H94        28.9245  -45.5272  -60.1495 H         1 UNK         0.0790 
     95 H95        29.9265  -46.7463  -59.3891 H         1 UNK         0.0790 
     96 H96        28.3820  -47.7189  -57.3030 H         1 UNK         0.3215 
     97 H97        26.9345  -50.8948  -56.7741 H         1 UNK         0.0863 
     98 H98        29.1656  -51.5858  -56.0172 H         1 UNK         0.0808 
     99 H99        29.9211  -50.2040  -56.8074 H         1 UNK         0.0808 
    100 H100       29.1783  -51.4769  -57.7677 H         1 UNK         0.0808 
    101 H101       28.4015  -49.5315  -54.9135 H         1 UNK         0.3118 
    102 H102       26.0942  -47.1084  -53.7550 H         1 UNK         0.0546 
    103 H103       26.3572  -49.9897  -52.7051 H         1 UNK         0.0828 
    104 H104       24.8460  -49.2875  -53.2654 H         1 UNK         0.0828 
    105 H105       25.6340  -48.6258  -51.8533 H         1 UNK         0.0828 
    106 H106       28.7040  -48.1343  -53.9310 H         1 UNK         0.3005 
    107 H107       30.2933  -46.8417  -52.8159 H         1 UNK         0.1257 
    108 H108       30.2554  -47.0503  -49.7726 H         1 UNK         0.0775 
    109 H109       29.6213  -45.6389  -50.5622 H         1 UNK         0.0775 
    110 H110       30.9031  -43.5907  -50.8433 H         1 UNK         0.0840 
    111 H111       32.5297  -43.4960  -51.4606 H         1 UNK         0.0840 
    112 H112       31.1218  -48.8708  -51.0458 H         1 UNK         0.2987 
    113 H113       31.2048  -51.2165  -51.6711 H         1 UNK         0.0785 
    114 H114       30.1000  -52.1546  -53.7005 H         1 UNK         0.0798 
    115 H115       31.6983  -52.8430  -53.4672 H         1 UNK         0.0798 
    116 H116       31.4426  -51.6119  -54.7012 H         1 UNK         0.0798 
    117 H117       33.3558  -50.5993  -53.6157 H         1 UNK         0.3079 
    118 H118       35.6343  -49.7653  -50.9345 H         1 UNK         0.0794 
    119 H119       36.9113  -51.3274  -52.3684 H         1 UNK         0.0786 
    120 H120       35.4433  -51.8153  -53.2100 H         1 UNK         0.0786 
    121 H121       35.6502  -52.1918  -51.5044 H         1 UNK         0.0786 
    122 H122       35.1701  -49.3867  -53.8645 H         1 UNK         0.3032 
    123 H123       35.2862  -45.9046  -53.5477 H         1 UNK         0.1094 
    124 H124       37.4623  -47.5846  -54.9183 H         1 UNK         0.0794 
    125 H125       37.0347  -45.9197  -55.3187 H         1 UNK         0.0794 
    126 H126       37.7515  -46.2934  -53.7607 H         1 UNK         0.0794 
    127 H127       35.1493  -47.5817  -55.8522 H         1 UNK         0.3016 
@<TRIPOS>BOND
     1    1    2 1    
     2    1   67 1    
     3    1   68 1    
     4    1   69 1    
     5    2    3 2    
     6    2    4 am   BACKBONE|DICT|INTERRES
     7    4    5 1    
     8    4   70 1    
     9    5    6 1    
    10    5   65 1    
    11    5   71 1    
    12    6    7 1    
    13    6   72 1    
    14    6   73 1    
    15    7    8 1    
    16    8    9 1    
    17    8   74 1    
    18    8   75 1    
    19    9   10 ar   
    20    9   14 ar   
    21   10   11 ar   
    22   10   76 1    
    23   11   12 ar   
    24   11   48 1    
    25   12   13 ar   
    26   12   77 1    
    27   13   14 ar   
    28   13   15 1    
    29   14   78 1    
    30   15   16 1    
    31   15   79 1    
    32   15   80 1    
    33   16   17 1    
    34   17   18 1    
    35   17   81 1    
    36   17   82 1    
    37   18   19 1    
    38   18   22 1    
    39   18   83 1    
    40   19   20 am   BACKBONE|DICT|INTERRES
    41   19   21 2    
    42   20   84 1    
    43   20   85 1    
    44   22   23 am   BACKBONE|DICT|INTERRES
    45   22   86 1    
    46   23   24 2    
    47   23   25 1    
    48   25   26 1    
    49   25   27 1    
    50   25   87 1    
    51   26   88 1    
    52   26   89 1    
    53   26   90 1    
    54   27   28 am   BACKBONE|DICT|INTERRES
    55   27   91 1    
    56   28   29 2    
    57   28   30 1    
    58   30   31 1    
    59   30   32 1    
    60   30   92 1    
    61   31   93 1    
    62   31   94 1    
    63   31   95 1    
    64   32   33 am   BACKBONE|DICT|INTERRES
    65   32   96 1    
    66   33   34 2    
    67   33   35 1    
    68   35   36 1    
    69   35   37 1    
    70   35   97 1    
    71   36   98 1    
    72   36   99 1    
    73   36  100 1    
    74   37   38 am   BACKBONE|DICT|INTERRES
    75   37  101 1    
    76   38   39 2    
    77   38   40 1    
    78   40   41 1    
    79   40   42 1    
    80   40  102 1    
    81   41  103 1    
    82   41  104 1    
    83   41  105 1    
    84   42   43 am   BACKBONE|DICT|INTERRES
    85   42  106 1    
    86   43   44 2    
    87   43   45 1    
    88   45   46 1    
    89   45   49 1    
    90   45  107 1    
    91   46   47 1    
    92   46  108 1    
    93   46  109 1    
    94   47   48 1    
    95   48  110 1    
    96   48  111 1    
    97   49   50 am   BACKBONE|DICT|INTERRES
    98   49  112 1    
    99   50   51 2    
   100   50   52 1    
   101   52   53 1    
   102   52   54 1    
   103   52  113 1    
   104   53  114 1    
   105   53  115 1    
   106   53  116 1    
   107   54   55 am   BACKBONE|DICT|INTERRES
   108   54  117 1    
   109   55   56 2    
   110   55   57 1    
   111   57   58 1    
   112   57   59 1    
   113   57  118 1    
   114   58  119 1    
   115   58  120 1    
   116   58  121 1    
   117   59   60 am   BACKBONE|DICT|INTERRES
   118   59  122 1    
   119   60   61 2    
   120   60   62 1    
   121   62   63 1    
   122   62   64 1    
   123   62  123 1    
   124   63  124 1    
   125   63  125 1    
   126   63  126 1    
   127   64   65 am   BACKBONE|DICT|INTERRES
   128   64  127 1    
   129   65   66 2    
@<TRIPOS>SUBSTRUCTURE
     1 UNK         1 GROUP             0       ****    0 ROOT    
