@<TRIPOS>MOLECULE
3R134
127   129    1
SMALL
USER_CHARGES


@<TRIPOS>ATOM
      1 CA         33.6038  -45.0657  -50.3013 C.3       0 UNK        -0.1968 
      2 C          34.6290  -45.1135  -51.4228 C.2       0 UNK         0.4852 
      3 O          35.7687  -44.6872  -51.2262 O.2       0 UNK        -0.5359 
      4 N          34.2306  -45.6325  -52.5894 N.am      1 UNK        -0.4300 
      5 CA         35.0949  -45.8535  -53.7523 C.3       1 UNK         0.0863 
      6 C6         34.3795  -45.5346  -55.0976 C.3       11 UNK        -0.0953 
      7 S7         33.4135  -43.9797  -55.0868 S.3       11 UNK        -0.2369 
      8 C8         31.7447  -44.6268  -55.4332 C.3       11 UNK         0.0226 
      9 C9         30.6404  -43.9211  -54.6628 C.ar      11 UNK        -0.0699 
     10 C10        30.6747  -43.8702  -53.2664 C.ar      11 UNK        -0.0804 
     11 C11        29.5958  -43.3525  -52.5440 C.ar      11 UNK        -0.0871 
     12 C12        28.4854  -42.8575  -53.2355 C.ar      11 UNK        -0.1008 
     13 C13        28.4485  -42.8788  -54.6341 C.ar      11 UNK        -0.0735 
     14 C14        29.5319  -43.4088  -55.3412 C.ar      11 UNK        -0.0945 
     15 C15        27.2374  -42.3294  -55.3762 C.3       11 UNK         0.0169 
     16 S16        26.3271  -43.6349  -56.2643 S.3       11 UNK        -0.2669 
     17 C17        26.8217  -43.2953  -57.9896 C.3       11 UNK        -0.0850 
     18 CA         26.5678  -44.5001  -58.9411 C.3       10 UNK         0.0855 
     19 C          26.7082  -44.1226  -60.4488 C.2       10 UNK         0.5543 
     20 N          27.1447  -45.0251  -61.3201 N.am      10 UNK        -0.7343 
     21 O          26.3873  -43.0048  -60.8457 O.2       10 UNK        -0.5027 
     22 N          27.2977  -45.7189  -58.5514 N.am      10 UNK        -0.4495 
     23 C          28.6293  -45.8873  -58.5354 C.2       10 UNK         0.4903 
     24 O          29.4394  -44.9900  -58.7677 O.2       10 UNK        -0.4860 
     25 CA         29.1602  -47.3025  -58.2359 C.3       9 UNK         0.0227 
     26 CB         29.8166  -47.3607  -56.8460 C.3       9 UNK        -0.1964 
     27 N          28.1129  -48.3227  -58.3219 N.am      9 UNK        -0.4231 
     28 C          27.6593  -48.8528  -59.4682 C.2       9 UNK         0.5014 
     29 O          28.1135  -48.5646  -60.5762 O.2       9 UNK        -0.5270 
     30 CA         26.4947  -49.8587  -59.3801 C.3       8 UNK         0.0284 
     31 CB         27.0295  -51.2992  -59.4318 C.3       8 UNK        -0.1977 
     32 N          25.6625  -49.6992  -58.1848 N.am      8 UNK        -0.4342 
     33 C          24.8960  -48.6331  -57.9150 C.2       8 UNK         0.5039 
     34 O          24.7588  -47.6769  -58.6782 O.2       8 UNK        -0.5547 
     35 CA         24.2264  -48.6007  -56.5278 C.3       7 UNK         0.0281 
     36 CB         22.8479  -49.2788  -56.5779 C.3       7 UNK        -0.1963 
     37 N          25.0371  -49.2070  -55.4604 N.am      7 UNK        -0.4444 
     38 C          26.2752  -48.8128  -55.1311 C.2       7 UNK         0.5104 
     39 O          26.8852  -47.9248  -55.7272 O.2       7 UNK        -0.5100 
     40 CA         26.9752  -49.5835  -53.9997 C.3       6 UNK         0.0396 
     41 CB         27.6412  -50.8514  -54.5586 C.3       6 UNK        -0.1801 
     42 N          27.9982  -48.7665  -53.3415 N.am      6 UNK        -0.4747 
     43 C          27.7434  -47.6785  -52.5961 C.2       6 UNK         0.5012 
     44 O          26.6015  -47.3117  -52.3113 O.2       6 UNK        -0.5003 
     45 CA         28.9612  -46.9039  -52.0503 C.3       5 UNK         0.0782 
     46 C46        28.5845  -45.9682  -50.8677 C.3       11 UNK        -0.0868 
     47 S47        29.9815  -44.9556  -50.2774 S.3       11 UNK        -0.2515 
     48 C48        29.6263  -43.3258  -51.0193 C.3       11 UNK         0.0199 
     49 N          30.0144  -47.8665  -51.7096 N.am      5 UNK        -0.4607 
     50 C          31.2644  -47.8419  -52.1820 C.2       4 UNK         0.5031 
     51 O          31.7280  -46.9222  -52.8559 O.2       4 UNK        -0.5119 
     52 CA         32.1697  -49.0480  -51.8697 C.3       4 UNK         0.0263 
     53 CB         31.4770  -50.1895  -51.0889 C.3       4 UNK        -0.1967 
     54 N          32.7976  -49.5597  -53.0939 N.am      4 UNK        -0.4237 
     55 C          32.1733  -50.0338  -54.1858 C.2       3 UNK         0.4908 
     56 O          30.9480  -50.1370  -54.2747 O.2       3 UNK        -0.5102 
     57 CA         33.0577  -50.4540  -55.3797 C.3       3 UNK         0.0241 
     58 CB         32.3417  -50.2689  -56.7314 C.3       3 UNK        -0.1971 
     59 N          34.3185  -49.7086  -55.4126 N.am      3 UNK        -0.4139 
     60 C          35.5172  -50.1687  -55.0292 C.2       2 UNK         0.5016 
     61 O          35.7258  -51.3249  -54.6615 O.2       2 UNK        -0.5319 
     62 CA         36.6768  -49.1497  -55.0188 C.3       2 UNK         0.0286 
     63 CB         37.4876  -49.2457  -56.3212 C.3       2 UNK        -0.1963 
     64 N          36.2432  -47.7580  -54.8190 N.am      2 UNK        -0.4790 
     65 C          35.6162  -47.3094  -53.7205 C.2       1 UNK         0.5024 
     66 O          35.4029  -48.0301  -52.7408 O.2       1 UNK        -0.4888 
     67 H67        32.8292  -45.8186  -50.4399 H         1 UNK         0.0892 
     68 H68        34.0811  -45.2524  -49.3398 H         1 UNK         0.0892 
     69 H69        33.1297  -44.0853  -50.2648 H         1 UNK         0.0892 
     70 H70        33.2896  -46.0136  -52.6799 H         1 UNK         0.3107 
     71 H71        35.9679  -45.2015  -53.6821 H         1 UNK         0.0773 
     72 H72        35.1156  -45.4432  -55.8978 H         1 UNK         0.0680 
     73 H73        33.7326  -46.3625  -55.3911 H         1 UNK         0.0680 
     74 H74        31.6846  -45.6786  -55.1590 H         1 UNK         0.0650 
     75 H75        31.5695  -44.5760  -56.5090 H         1 UNK         0.0650 
     76 H76        31.5269  -44.2750  -52.7387 H         1 UNK         0.1397 
     77 H77        27.6468  -42.4543  -52.6842 H         1 UNK         0.1363 
     78 H78        29.4960  -43.4548  -56.4205 H         1 UNK         0.1355 
     79 H79        26.5489  -41.8506  -54.6783 H         1 UNK         0.0707 
     80 H80        27.5562  -41.5467  -56.0660 H         1 UNK         0.0707 
     81 H81        27.8690  -42.9953  -58.0276 H         1 UNK         0.1034 
     82 H82        26.2509  -42.4240  -58.3158 H         1 UNK         0.1034 
     83 H83        25.5152  -44.7654  -58.8368 H         1 UNK         0.0482 
     84 H84        27.4002  -45.9513  -61.0132 H         1 UNK         0.3460 
     85 H85        27.2212  -44.7756  -62.2935 H         1 UNK         0.3460 
     86 H86        26.7099  -46.5184  -58.3542 H         1 UNK         0.2989 
     87 H87        29.9266  -47.5379  -58.9773 H         1 UNK         0.0559 
     88 H88        30.8120  -46.9221  -56.8865 H         1 UNK         0.0848 
     89 H89        29.9290  -48.3841  -56.4881 H         1 UNK         0.0848 
     90 H90        29.2451  -46.8105  -56.0967 H         1 UNK         0.0848 
     91 H91        27.6357  -48.5320  -57.4505 H         1 UNK         0.3144 
     92 H92        25.8583  -49.6970  -60.2528 H         1 UNK         0.0727 
     93 H93        26.2164  -52.0251  -59.4563 H         1 UNK         0.0790 
     94 H94        27.6607  -51.5278  -58.5719 H         1 UNK         0.0790 
     95 H95        27.6305  -51.4599  -60.3282 H         1 UNK         0.0790 
     96 H96        25.7077  -50.4363  -57.4964 H         1 UNK         0.3215 
     97 H97        24.0812  -47.5500  -56.2667 H         1 UNK         0.0863 
     98 H98        22.9273  -50.3439  -56.7991 H         1 UNK         0.0808 
     99 H99        22.2218  -48.8314  -57.3514 H         1 UNK         0.0808 
    100 H100       22.3164  -49.1696  -55.6323 H         1 UNK         0.0808 
    101 H101       24.6066  -49.9509  -54.9292 H         1 UNK         0.3118 
    102 H102       26.2312  -49.8712  -53.2540 H         1 UNK         0.0546 
    103 H103       28.1488  -51.4124  -53.7736 H         1 UNK         0.0828 
    104 H104       28.3801  -50.6137  -55.3257 H         1 UNK         0.0828 
    105 H105       26.9061  -51.5196  -55.0084 H         1 UNK         0.0828 
    106 H106       28.9614  -48.9969  -53.5541 H         1 UNK         0.3005 
    107 H107       29.2897  -46.2777  -52.8826 H         1 UNK         0.1257 
    108 H108       28.2142  -46.5543  -50.0248 H         1 UNK         0.0775 
    109 H109       27.7706  -45.2975  -51.1499 H         1 UNK         0.0775 
    110 H110       28.6825  -42.9553  -50.6161 H         1 UNK         0.0840 
    111 H111       30.3939  -42.6209  -50.6977 H         1 UNK         0.0840 
    112 H112       29.7176  -48.6653  -51.1678 H         1 UNK         0.2987 
    113 H113       32.9796  -48.6636  -51.2477 H         1 UNK         0.0785 
    114 H114       32.1748  -51.0035  -50.8924 H         1 UNK         0.0798 
    115 H115       31.1156  -49.8447  -50.1192 H         1 UNK         0.0798 
    116 H116       30.6304  -50.6104  -51.6328 H         1 UNK         0.0798 
    117 H117       33.8038  -49.4484  -53.1300 H         1 UNK         0.3079 
    118 H118       33.2569  -51.5200  -55.2530 H         1 UNK         0.0794 
    119 H119       31.3946  -50.8096  -56.7602 H         1 UNK         0.0786 
    120 H120       32.9503  -50.6478  -57.5527 H         1 UNK         0.0786 
    121 H121       32.1294  -49.2194  -56.9333 H         1 UNK         0.0786 
    122 H122       34.2568  -48.7407  -55.6917 H         1 UNK         0.3032 
    123 H123       37.3314  -49.4178  -54.1861 H         1 UNK         0.1094 
    124 H124       36.8915  -48.9674  -57.1912 H         1 UNK         0.0794 
    125 H125       38.3646  -48.5987  -56.2922 H         1 UNK         0.0794 
    126 H126       37.8451  -50.2637  -56.4838 H         1 UNK         0.0794 
    127 H127       36.4082  -47.1192  -55.5844 H         1 UNK         0.3016 
@<TRIPOS>BOND
     1    1    2 1    
     2    1   67 1    
     3    1   68 1    
     4    1   69 1    
     5    2    3 2    
     6    2    4 am   BACKBONE|DICT|INTERRES
     7    4    5 1    
     8    4   70 1    
     9    5    6 1    
    10    5   65 1    
    11    5   71 1    
    12    6    7 1    
    13    6   72 1    
    14    6   73 1    
    15    7    8 1    
    16    8    9 1    
    17    8   74 1    
    18    8   75 1    
    19    9   10 ar   
    20    9   14 ar   
    21   10   11 ar   
    22   10   76 1    
    23   11   12 ar   
    24   11   48 1    
    25   12   13 ar   
    26   12   77 1    
    27   13   14 ar   
    28   13   15 1    
    29   14   78 1    
    30   15   16 1    
    31   15   79 1    
    32   15   80 1    
    33   16   17 1    
    34   17   18 1    
    35   17   81 1    
    36   17   82 1    
    37   18   19 1    
    38   18   22 1    
    39   18   83 1    
    40   19   20 am   BACKBONE|DICT|INTERRES
    41   19   21 2    
    42   20   84 1    
    43   20   85 1    
    44   22   23 am   BACKBONE|DICT|INTERRES
    45   22   86 1    
    46   23   24 2    
    47   23   25 1    
    48   25   26 1    
    49   25   27 1    
    50   25   87 1    
    51   26   88 1    
    52   26   89 1    
    53   26   90 1    
    54   27   28 am   BACKBONE|DICT|INTERRES
    55   27   91 1    
    56   28   29 2    
    57   28   30 1    
    58   30   31 1    
    59   30   32 1    
    60   30   92 1    
    61   31   93 1    
    62   31   94 1    
    63   31   95 1    
    64   32   33 am   BACKBONE|DICT|INTERRES
    65   32   96 1    
    66   33   34 2    
    67   33   35 1    
    68   35   36 1    
    69   35   37 1    
    70   35   97 1    
    71   36   98 1    
    72   36   99 1    
    73   36  100 1    
    74   37   38 am   BACKBONE|DICT|INTERRES
    75   37  101 1    
    76   38   39 2    
    77   38   40 1    
    78   40   41 1    
    79   40   42 1    
    80   40  102 1    
    81   41  103 1    
    82   41  104 1    
    83   41  105 1    
    84   42   43 am   BACKBONE|DICT|INTERRES
    85   42  106 1    
    86   43   44 2    
    87   43   45 1    
    88   45   46 1    
    89   45   49 1    
    90   45  107 1    
    91   46   47 1    
    92   46  108 1    
    93   46  109 1    
    94   47   48 1    
    95   48  110 1    
    96   48  111 1    
    97   49   50 am   BACKBONE|DICT|INTERRES
    98   49  112 1    
    99   50   51 2    
   100   50   52 1    
   101   52   53 1    
   102   52   54 1    
   103   52  113 1    
   104   53  114 1    
   105   53  115 1    
   106   53  116 1    
   107   54   55 am   BACKBONE|DICT|INTERRES
   108   54  117 1    
   109   55   56 2    
   110   55   57 1    
   111   57   58 1    
   112   57   59 1    
   113   57  118 1    
   114   58  119 1    
   115   58  120 1    
   116   58  121 1    
   117   59   60 am   BACKBONE|DICT|INTERRES
   118   59  122 1    
   119   60   61 2    
   120   60   62 1    
   121   62   63 1    
   122   62   64 1    
   123   62  123 1    
   124   63  124 1    
   125   63  125 1    
   126   63  126 1    
   127   64   65 am   BACKBONE|DICT|INTERRES
   128   64  127 1    
   129   65   66 2    
@<TRIPOS>SUBSTRUCTURE
     1 UNK         1 GROUP             0       ****    0 ROOT    
