@<TRIPOS>MOLECULE
3R134
127   129    1
SMALL
USER_CHARGES


@<TRIPOS>ATOM
      1 CA         29.1990  -44.8032  -53.4240 C.3       0 UNK        -0.1968 
      2 C          30.0049  -45.0771  -52.1700 C.2       0 UNK         0.4852 
      3 O          29.4677  -45.6067  -51.1969 O.2       0 UNK        -0.5359 
      4 N          31.2855  -44.6870  -52.1820 N.am      1 UNK        -0.4300 
      5 CA         32.1736  -44.7570  -51.0212 C.3       1 UNK         0.0863 
      6 C6         33.3686  -43.7787  -51.1427 C.3       11 UNK        -0.0953 
      7 S7         34.4674  -44.0787  -52.5726 S.3       11 UNK        -0.2369 
      8 C8         34.3568  -42.5161  -53.5060 C.3       11 UNK         0.0226 
      9 C9         33.3109  -42.5789  -54.6104 C.ar      11 UNK        -0.0699 
     10 C10        33.5462  -43.3747  -55.7339 C.ar      11 UNK        -0.0804 
     11 C11        32.6115  -43.4362  -56.7696 C.ar      11 UNK        -0.0871 
     12 C12        31.4532  -42.6588  -56.6947 C.ar      11 UNK        -0.1008 
     13 C13        31.1939  -41.8570  -55.5747 C.ar      11 UNK        -0.0735 
     14 C14        32.1319  -41.8288  -54.5342 C.ar      11 UNK        -0.0945 
     15 C15        29.9315  -40.9951  -55.4483 C.3       11 UNK         0.0169 
     16 S16        28.5954  -41.3176  -56.6609 S.3       11 UNK        -0.2669 
     17 C17        28.0676  -42.9873  -56.1541 C.3       11 UNK        -0.0850 
     18 CA         27.2955  -43.7802  -57.2372 C.3       10 UNK         0.0855 
     19 C          28.1915  -44.1793  -58.4362 C.2       10 UNK         0.5543 
     20 N          28.0140  -43.5489  -59.5885 N.am      10 UNK        -0.7343 
     21 O          29.0632  -45.0368  -58.3211 O.2       10 UNK        -0.5027 
     22 N          26.7175  -44.9912  -56.6496 N.am      10 UNK        -0.4495 
     23 C          25.4604  -45.1325  -56.2170 C.2       10 UNK         0.4903 
     24 O          24.6187  -44.2332  -56.2488 O.2       10 UNK        -0.4860 
     25 CA         25.0945  -46.5155  -55.6411 C.3       9 UNK         0.0227 
     26 CB         23.5790  -46.7075  -55.4203 C.3       9 UNK        -0.1964 
     27 N          25.6637  -47.6159  -56.4265 N.am      9 UNK        -0.4231 
     28 C          25.4028  -47.9390  -57.7020 C.2       9 UNK         0.5014 
     29 O          24.5459  -47.3865  -58.3932 O.2       9 UNK        -0.5270 
     30 CA         26.2617  -49.0504  -58.3355 C.3       8 UNK         0.0284 
     31 CB         27.2988  -48.4303  -59.2870 C.3       8 UNK        -0.1977 
     32 N          26.9559  -49.8969  -57.3587 N.am      8 UNK        -0.4342 
     33 C          26.3651  -50.8195  -56.5857 C.2       8 UNK         0.5039 
     34 O          25.1680  -51.1010  -56.6507 O.2       8 UNK        -0.5547 
     35 CA         27.2513  -51.5269  -55.5429 C.3       7 UNK         0.0281 
     36 CB         28.0587  -52.6641  -56.1882 C.3       7 UNK        -0.1963 
     37 N          28.1554  -50.6062  -54.8460 N.am      7 UNK        -0.4444 
     38 C          27.7504  -49.6135  -54.0399 C.2       7 UNK         0.5104 
     39 O          26.5737  -49.4003  -53.7498 O.2       7 UNK        -0.5100 
     40 CA         28.8333  -48.6605  -53.5101 C.3       6 UNK         0.0396 
     41 CB         29.4959  -49.2190  -52.2425 C.3       6 UNK        -0.1801 
     42 N          29.8449  -48.3482  -54.5234 N.am      6 UNK        -0.4747 
     43 C          29.5961  -47.6510  -55.6428 C.2       6 UNK         0.5012 
     44 O          28.5084  -47.1341  -55.8946 O.2       6 UNK        -0.5003 
     45 CA         30.7435  -47.5351  -56.6613 C.3       5 UNK         0.0782 
     46 C46        31.6745  -46.3674  -56.2747 C.3       11 UNK        -0.0868 
     47 S47        33.0567  -46.1131  -57.4411 S.3       11 UNK        -0.2515 
     48 C48        32.8219  -44.3749  -57.9531 C.3       11 UNK         0.0199 
     49 N          31.4502  -48.8095  -56.8055 N.am      5 UNK        -0.4607 
     50 C          30.9087  -49.9019  -57.3599 C.2       4 UNK         0.5031 
     51 O          29.7722  -49.9348  -57.8282 O.2       4 UNK        -0.5119 
     52 CA         31.7510  -51.1865  -57.3612 C.3       4 UNK         0.0263 
     53 CB         32.5951  -51.2718  -58.6423 C.3       4 UNK        -0.1967 
     54 N          32.6221  -51.3164  -56.1922 N.am      4 UNK        -0.4237 
     55 C          32.2094  -51.3806  -54.9182 C.2       3 UNK         0.4908 
     56 O          31.0235  -51.3453  -54.5829 O.2       3 UNK        -0.5102 
     57 CA         33.3012  -51.5134  -53.8363 C.3       3 UNK         0.0241 
     58 CB         34.7449  -51.4666  -54.3903 C.3       3 UNK        -0.1971 
     59 N          33.1755  -50.5453  -52.7396 N.am      3 UNK        -0.4139 
     60 C          33.0544  -49.2125  -52.8301 C.2       2 UNK         0.5016 
     61 O          32.8436  -48.5933  -53.8769 O.2       2 UNK        -0.5319 
     62 CA         33.2503  -48.4434  -51.5172 C.3       2 UNK         0.0286 
     63 CB         34.7409  -48.4636  -51.1125 C.3       2 UNK        -0.1963 
     64 N          32.7911  -47.0629  -51.6703 N.am      2 UNK        -0.4790 
     65 C          32.6133  -46.1939  -50.6650 C.2       1 UNK         0.5024 
     66 O          32.7769  -46.4875  -49.4794 O.2       1 UNK        -0.4888 
     67 H67        28.8647  -43.7667  -53.4214 H         1 UNK         0.0892 
     68 H68        29.8033  -44.9773  -54.3110 H         1 UNK         0.0892 
     69 H69        28.3189  -45.4424  -53.4784 H         1 UNK         0.0892 
     70 H70        31.6824  -44.2617  -53.0084 H         1 UNK         0.3107 
     71 H71        31.5902  -44.4121  -50.1640 H         1 UNK         0.0773 
     72 H72        33.9778  -43.8166  -50.2377 H         1 UNK         0.0680 
     73 H73        32.9868  -42.7580  -51.1875 H         1 UNK         0.0680 
     74 H74        35.3294  -42.3213  -53.9601 H         1 UNK         0.0650 
     75 H75        34.1720  -41.6790  -52.8316 H         1 UNK         0.0650 
     76 H76        34.4486  -43.9684  -55.7908 H         1 UNK         0.1397 
     77 H77        30.7478  -42.7026  -57.5116 H         1 UNK         0.1363 
     78 H78        31.9503  -41.2068  -53.6679 H         1 UNK         0.1355 
     79 H79        29.5167  -41.1083  -54.4453 H         1 UNK         0.0707 
     80 H80        30.2250  -39.9488  -55.5423 H         1 UNK         0.0707 
     81 H81        27.4458  -42.8741  -55.2648 H         1 UNK         0.1034 
     82 H82        28.9426  -43.5568  -55.8482 H         1 UNK         0.1034 
     83 H83        26.4872  -43.1497  -57.6136 H         1 UNK         0.0482 
     84 H84        27.3158  -42.8284  -59.6861 H         1 UNK         0.3460 
     85 H85        28.5968  -43.7929  -60.3733 H         1 UNK         0.3460 
     86 H86        27.3522  -45.7852  -56.5867 H         1 UNK         0.2989 
     87 H87        25.5761  -46.5708  -54.6636 H         1 UNK         0.0559 
     88 H88        23.1902  -45.9661  -54.7213 H         1 UNK         0.0848 
     89 H89        23.3615  -47.6907  -55.0030 H         1 UNK         0.0848 
     90 H90        23.0156  -46.6037  -56.3479 H         1 UNK         0.0848 
     91 H91        26.4292  -48.1054  -55.9805 H         1 UNK         0.3144 
     92 H92        25.5945  -49.6848  -58.9228 H         1 UNK         0.0727 
     93 H93        27.8751  -49.1987  -59.8026 H         1 UNK         0.0790 
     94 H94        27.9998  -47.7871  -58.7531 H         1 UNK         0.0790 
     95 H95        26.8158  -47.8203  -60.0516 H         1 UNK         0.0790 
     96 H96        27.9680  -49.7942  -57.3105 H         1 UNK         0.3215 
     97 H97        26.5906  -51.9666  -54.7925 H         1 UNK         0.0863 
     98 H98        28.6796  -53.1785  -55.4543 H         1 UNK         0.0808 
     99 H99        28.7095  -52.2992  -56.9820 H         1 UNK         0.0808 
    100 H100       27.3945  -53.4075  -56.6309 H         1 UNK         0.0808 
    101 H101       29.1543  -50.7434  -54.9739 H         1 UNK         0.3118 
    102 H102       28.3351  -47.7303  -53.2347 H         1 UNK         0.0546 
    103 H103       30.0541  -50.1337  -52.4405 H         1 UNK         0.0828 
    104 H104       28.7470  -49.4531  -51.4848 H         1 UNK         0.0828 
    105 H105       30.1767  -48.4907  -51.8027 H         1 UNK         0.0828 
    106 H106       30.7727  -48.7384  -54.3938 H         1 UNK         0.3005 
    107 H107       30.2918  -47.2976  -57.6273 H         1 UNK         0.1257 
    108 H108       31.0791  -45.4566  -56.2190 H         1 UNK         0.0775 
    109 H109       32.1002  -46.5114  -55.2807 H         1 UNK         0.0775 
    110 H110       33.6938  -44.0482  -58.5211 H         1 UNK         0.0840 
    111 H111       31.9725  -44.3316  -58.6373 H         1 UNK         0.0840 
    112 H112       32.3749  -48.8593  -56.4008 H         1 UNK         0.2987 
    113 H113       31.0615  -52.0325  -57.3507 H         1 UNK         0.0785 
    114 H114       33.1317  -52.2189  -58.7033 H         1 UNK         0.0798 
    115 H115       33.3269  -50.4648  -58.6994 H         1 UNK         0.0798 
    116 H116       31.9638  -51.2020  -59.5295 H         1 UNK         0.0798 
    117 H117       33.6154  -51.3489  -56.3699 H         1 UNK         0.3079 
    118 H118       33.1521  -52.4981  -53.3911 H         1 UNK         0.0794 
    119 H119       34.9235  -52.2580  -55.1195 H         1 UNK         0.0786 
    120 H120       35.4723  -51.6118  -53.5913 H         1 UNK         0.0786 
    121 H121       34.9702  -50.5096  -54.8635 H         1 UNK         0.0786 
    122 H122       33.2878  -50.9409  -51.8167 H         1 UNK         0.3032 
    123 H123       32.6502  -48.9276  -50.7434 H         1 UNK         0.1094 
    124 H124       35.3599  -47.9485  -51.8485 H         1 UNK         0.0794 
    125 H125       34.9062  -47.9854  -50.1474 H         1 UNK         0.0794 
    126 H126       35.1191  -49.4829  -51.0258 H         1 UNK         0.0794 
    127 H127       32.6252  -46.7772  -52.6272 H         1 UNK         0.3016 
@<TRIPOS>BOND
     1    1    2 1    
     2    1   67 1    
     3    1   68 1    
     4    1   69 1    
     5    2    3 2    
     6    2    4 am   BACKBONE|DICT|INTERRES
     7    4    5 1    
     8    4   70 1    
     9    5    6 1    
    10    5   65 1    
    11    5   71 1    
    12    6    7 1    
    13    6   72 1    
    14    6   73 1    
    15    7    8 1    
    16    8    9 1    
    17    8   74 1    
    18    8   75 1    
    19    9   10 ar   
    20    9   14 ar   
    21   10   11 ar   
    22   10   76 1    
    23   11   12 ar   
    24   11   48 1    
    25   12   13 ar   
    26   12   77 1    
    27   13   14 ar   
    28   13   15 1    
    29   14   78 1    
    30   15   16 1    
    31   15   79 1    
    32   15   80 1    
    33   16   17 1    
    34   17   18 1    
    35   17   81 1    
    36   17   82 1    
    37   18   19 1    
    38   18   22 1    
    39   18   83 1    
    40   19   20 am   BACKBONE|DICT|INTERRES
    41   19   21 2    
    42   20   84 1    
    43   20   85 1    
    44   22   23 am   BACKBONE|DICT|INTERRES
    45   22   86 1    
    46   23   24 2    
    47   23   25 1    
    48   25   26 1    
    49   25   27 1    
    50   25   87 1    
    51   26   88 1    
    52   26   89 1    
    53   26   90 1    
    54   27   28 am   BACKBONE|DICT|INTERRES
    55   27   91 1    
    56   28   29 2    
    57   28   30 1    
    58   30   31 1    
    59   30   32 1    
    60   30   92 1    
    61   31   93 1    
    62   31   94 1    
    63   31   95 1    
    64   32   33 am   BACKBONE|DICT|INTERRES
    65   32   96 1    
    66   33   34 2    
    67   33   35 1    
    68   35   36 1    
    69   35   37 1    
    70   35   97 1    
    71   36   98 1    
    72   36   99 1    
    73   36  100 1    
    74   37   38 am   BACKBONE|DICT|INTERRES
    75   37  101 1    
    76   38   39 2    
    77   38   40 1    
    78   40   41 1    
    79   40   42 1    
    80   40  102 1    
    81   41  103 1    
    82   41  104 1    
    83   41  105 1    
    84   42   43 am   BACKBONE|DICT|INTERRES
    85   42  106 1    
    86   43   44 2    
    87   43   45 1    
    88   45   46 1    
    89   45   49 1    
    90   45  107 1    
    91   46   47 1    
    92   46  108 1    
    93   46  109 1    
    94   47   48 1    
    95   48  110 1    
    96   48  111 1    
    97   49   50 am   BACKBONE|DICT|INTERRES
    98   49  112 1    
    99   50   51 2    
   100   50   52 1    
   101   52   53 1    
   102   52   54 1    
   103   52  113 1    
   104   53  114 1    
   105   53  115 1    
   106   53  116 1    
   107   54   55 am   BACKBONE|DICT|INTERRES
   108   54  117 1    
   109   55   56 2    
   110   55   57 1    
   111   57   58 1    
   112   57   59 1    
   113   57  118 1    
   114   58  119 1    
   115   58  120 1    
   116   58  121 1    
   117   59   60 am   BACKBONE|DICT|INTERRES
   118   59  122 1    
   119   60   61 2    
   120   60   62 1    
   121   62   63 1    
   122   62   64 1    
   123   62  123 1    
   124   63  124 1    
   125   63  125 1    
   126   63  126 1    
   127   64   65 am   BACKBONE|DICT|INTERRES
   128   64  127 1    
   129   65   66 2    
@<TRIPOS>SUBSTRUCTURE
     1 UNK         1 GROUP             0       ****    0 ROOT    
