@<TRIPOS>MOLECULE
3R134
127   129    1
SMALL
USER_CHARGES


@<TRIPOS>ATOM
      1 CA         32.4092  -46.5779  -51.6058 C.3       0 UNK        -0.1968 
      2 C          33.7060  -46.1726  -52.2876 C.2       0 UNK         0.4852 
      3 O          34.6294  -45.7076  -51.6181 O.2       0 UNK        -0.5359 
      4 N          33.7774  -46.3372  -53.6146 N.am      1 UNK        -0.4300 
      5 CA         34.9520  -46.0121  -54.4353 C.3       1 UNK         0.0863 
      6 C6         34.6098  -45.8226  -55.9404 C.3       11 UNK        -0.0953 
      7 S7         33.0198  -45.0011  -56.3026 S.3       11 UNK        -0.2369 
      8 C8         33.1152  -43.4335  -55.3898 C.3       11 UNK         0.0226 
      9 C9         31.7128  -42.9145  -55.1205 C.ar      11 UNK        -0.0699 
     10 C10        31.0691  -43.2250  -53.9197 C.ar      11 UNK        -0.0804 
     11 C11        29.7643  -42.7836  -53.6744 C.ar      11 UNK        -0.0871 
     12 C12        29.1113  -42.0080  -54.6392 C.ar      11 UNK        -0.1008 
     13 C13        29.7474  -41.6891  -55.8441 C.ar      11 UNK        -0.0735 
     14 C14        31.0479  -42.1453  -56.0781 C.ar      11 UNK        -0.0945 
     15 C15        29.0481  -40.8387  -56.8942 C.3       11 UNK         0.0169 
     16 S16        28.2866  -41.8628  -58.1935 S.3       11 UNK        -0.2669 
     17 C17        26.6660  -42.2731  -57.4562 C.3       11 UNK        -0.0850 
     18 CA         26.6155  -43.6665  -56.7632 C.3       10 UNK         0.0855 
     19 C          25.2536  -43.9158  -56.0432 C.2       10 UNK         0.5543 
     20 N          24.8594  -45.1575  -55.8026 N.am      10 UNK        -0.7343 
     21 O          24.5517  -42.9763  -55.6757 O.2       10 UNK        -0.5027 
     22 N          27.0709  -44.7580  -57.6437 N.am      10 UNK        -0.4495 
     23 C          26.4562  -45.2154  -58.7387 C.2       10 UNK         0.4903 
     24 O          25.3552  -44.8147  -59.1194 O.2       10 UNK        -0.4860 
     25 CA         27.1833  -46.2734  -59.5963 C.3       9 UNK         0.0227 
     26 CB         27.9896  -45.5812  -60.7124 C.3       9 UNK        -0.1964 
     27 N          28.0202  -47.2641  -58.8976 N.am      9 UNK        -0.4231 
     28 C          29.1278  -47.0921  -58.1623 C.2       9 UNK         0.5014 
     29 O          29.5691  -45.9895  -57.8374 O.2       9 UNK        -0.5270 
     30 CA         29.8772  -48.3741  -57.7382 C.3       8 UNK         0.0284 
     31 CB         31.0802  -48.0882  -56.8204 C.3       8 UNK        -0.1977 
     32 N          29.0173  -49.3595  -57.0821 N.am      8 UNK        -0.4342 
     33 C          28.1606  -50.1898  -57.6897 C.2       8 UNK         0.5039 
     34 O          27.9378  -50.1712  -58.9011 O.2       8 UNK        -0.5547 
     35 CA         27.4096  -51.1811  -56.7906 C.3       7 UNK         0.0281 
     36 CB         28.3505  -52.2887  -56.2855 C.3       7 UNK        -0.1963 
     37 N          26.8220  -50.4769  -55.6529 N.am      7 UNK        -0.4444 
     38 C          25.5830  -49.9682  -55.6361 C.2       7 UNK         0.5104 
     39 O          24.7488  -50.1595  -56.5216 O.2       7 UNK        -0.5100 
     40 CA         25.2070  -49.0810  -54.4333 C.3       6 UNK         0.0396 
     41 CB         24.5182  -49.9186  -53.3444 C.3       6 UNK        -0.1801 
     42 N          26.3424  -48.3635  -53.8441 N.am      6 UNK        -0.4747 
     43 C          27.0955  -47.4548  -54.4829 C.2       6 UNK         0.5012 
     44 O          26.8977  -47.1042  -55.6439 O.2       6 UNK        -0.5003 
     45 CA         28.2898  -46.8664  -53.7049 C.3       5 UNK         0.0782 
     46 C46        27.8357  -45.5954  -52.9402 C.3       11 UNK        -0.0868 
     47 S47        29.1473  -44.8669  -51.9014 S.3       11 UNK        -0.2515 
     48 C48        29.0798  -43.0990  -52.3489 C.3       11 UNK         0.0199 
     49 N          28.9521  -47.8457  -52.8263 N.am      5 UNK        -0.4607 
     50 C          29.4319  -49.0415  -53.1951 C.2       4 UNK         0.5031 
     51 O          29.2644  -49.5369  -54.3115 O.2       4 UNK        -0.5119 
     52 CA         30.1820  -49.8417  -52.1183 C.3       4 UNK         0.0263 
     53 CB         29.1874  -50.6790  -51.2983 C.3       4 UNK        -0.1967 
     54 N          31.1964  -50.7323  -52.6914 N.am      4 UNK        -0.4237 
     55 C          32.2615  -50.3294  -53.3966 C.2       3 UNK         0.4908 
     56 O          32.5399  -49.1452  -53.6154 O.2       3 UNK        -0.5102 
     57 CA         33.1596  -51.4395  -53.9714 C.3       3 UNK         0.0241 
     58 CB         32.5191  -52.0564  -55.2267 C.3       3 UNK        -0.1971 
     59 N          34.4558  -50.8672  -54.3306 N.am      3 UNK        -0.4139 
     60 C          35.4463  -50.6358  -53.4581 C.2       2 UNK         0.5016 
     61 O          35.5348  -51.1581  -52.3465 O.2       2 UNK        -0.5319 
     62 CA         36.4269  -49.5336  -53.8657 C.3       2 UNK         0.0286 
     63 CB         37.2485  -49.9216  -55.1120 C.3       2 UNK        -0.1963 
     64 N          35.6238  -48.3333  -54.0922 N.am      2 UNK        -0.4790 
     65 C          36.0545  -47.0799  -54.2739 C.2       1 UNK         0.5024 
     66 O          37.2413  -46.7539  -54.3145 O.2       1 UNK        -0.4888 
     67 H67        31.6276  -46.7959  -52.3326 H         1 UNK         0.0892 
     68 H68        32.5694  -47.4673  -50.9973 H         1 UNK         0.0892 
     69 H69        32.0548  -45.7762  -50.9586 H         1 UNK         0.0892 
     70 H70        32.9976  -46.7530  -54.1065 H         1 UNK         0.3107 
     71 H71        35.3678  -45.0722  -54.0666 H         1 UNK         0.0773 
     72 H72        35.4062  -45.2646  -56.4358 H         1 UNK         0.0680 
     73 H73        34.5636  -46.7885  -56.4481 H         1 UNK         0.0680 
     74 H74        33.6892  -42.7093  -55.9694 H         1 UNK         0.0650 
     75 H75        33.6427  -43.5649  -54.4456 H         1 UNK         0.0650 
     76 H76        31.5826  -43.8193  -53.1766 H         1 UNK         0.1397 
     77 H77        28.1083  -41.6483  -54.4541 H         1 UNK         0.1363 
     78 H78        31.5392  -41.9110  -57.0127 H         1 UNK         0.1355 
     79 H79        28.3035  -40.1868  -56.4354 H         1 UNK         0.0707 
     80 H80        29.7766  -40.1744  -57.3617 H         1 UNK         0.0707 
     81 H81        26.3936  -41.4852  -56.7522 H         1 UNK         0.1034 
     82 H82        25.9171  -42.2267  -58.2486 H         1 UNK         0.1034 
     83 H83        27.3442  -43.6496  -55.9547 H         1 UNK         0.0482 
     84 H84        25.4826  -45.9298  -56.0202 H         1 UNK         0.3460 
     85 H85        23.9803  -45.3217  -55.3406 H         1 UNK         0.3460 
     86 H86        27.9924  -45.1399  -57.4440 H         1 UNK         0.2989 
     87 H87        26.3999  -46.8599  -60.0787 H         1 UNK         0.0559 
     88 H88        28.4220  -46.3070  -61.4010 H         1 UNK         0.0848 
     89 H89        28.8015  -44.9757  -60.3073 H         1 UNK         0.0848 
     90 H90        27.3541  -44.9166  -61.2993 H         1 UNK         0.0848 
     91 H91        27.7553  -48.2342  -59.0518 H         1 UNK         0.3144 
     92 H92        30.2680  -48.8240  -58.6532 H         1 UNK         0.0727 
     93 H93        30.7818  -47.5713  -55.9078 H         1 UNK         0.0790 
     94 H94        31.8115  -47.4617  -57.3305 H         1 UNK         0.0790 
     95 H95        31.5912  -49.0056  -56.5298 H         1 UNK         0.0790 
     96 H96        29.1129  -49.4244  -56.0689 H         1 UNK         0.3215 
     97 H97        26.6243  -51.6520  -57.3863 H         1 UNK         0.0863 
     98 H98        27.8095  -53.0227  -55.6882 H         1 UNK         0.0808 
     99 H99        29.1599  -51.8921  -55.6718 H         1 UNK         0.0808 
    100 H100       28.8062  -52.8227  -57.1204 H         1 UNK         0.0808 
    101 H101       27.4590  -50.2168  -54.9078 H         1 UNK         0.3118 
    102 H102       24.4955  -48.3332  -54.7897 H         1 UNK         0.0546 
    103 H103       25.1899  -50.6694  -52.9262 H         1 UNK         0.0828 
    104 H104       23.6520  -50.4454  -53.7475 H         1 UNK         0.0828 
    105 H105       24.1612  -49.2923  -52.5267 H         1 UNK         0.0828 
    106 H106       26.5837  -48.5954  -52.8913 H         1 UNK         0.3005 
    107 H107       29.0288  -46.5634  -54.4504 H         1 UNK         0.1257 
    108 H108       26.9905  -45.8194  -52.2862 H         1 UNK         0.0775 
    109 H109       27.4803  -44.8428  -53.6469 H         1 UNK         0.0775 
    110 H110       28.0394  -42.7699  -52.3529 H         1 UNK         0.0840 
    111 H111       29.5761  -42.5262  -51.5644 H         1 UNK         0.0840 
    112 H112       29.1142  -47.5260  -51.8820 H         1 UNK         0.2987 
    113 H113       30.6899  -49.1419  -51.4523 H         1 UNK         0.0785 
    114 H114       28.4362  -50.0459  -50.8241 H         1 UNK         0.0798 
    115 H115       29.6914  -51.2282  -50.5027 H         1 UNK         0.0798 
    116 H116       28.6579  -51.4012  -51.9218 H         1 UNK         0.0798 
    117 H117       31.0298  -51.7227  -52.5918 H         1 UNK         0.3079 
    118 H118       33.2962  -52.2170  -53.2166 H         1 UNK         0.0794 
    119 H119       31.5672  -52.5326  -54.9889 H         1 UNK         0.0786 
    120 H120       33.1613  -52.8218  -55.6629 H         1 UNK         0.0786 
    121 H121       32.3237  -51.3064  -55.9941 H         1 UNK         0.0786 
    122 H122       34.4808  -50.3661  -55.2065 H         1 UNK         0.3032 
    123 H123       37.1056  -49.3510  -53.0297 H         1 UNK         0.1094 
    124 H124       38.0147  -49.1780  -55.3307 H         1 UNK         0.0794 
    125 H125       37.7612  -50.8721  -54.9587 H         1 UNK         0.0794 
    126 H126       36.6246  -50.0248  -56.0002 H         1 UNK         0.0794 
    127 H127       34.6215  -48.4706  -54.0016 H         1 UNK         0.3016 
@<TRIPOS>BOND
     1    1    2 1    
     2    1   67 1    
     3    1   68 1    
     4    1   69 1    
     5    2    3 2    
     6    2    4 am   BACKBONE|DICT|INTERRES
     7    4    5 1    
     8    4   70 1    
     9    5    6 1    
    10    5   65 1    
    11    5   71 1    
    12    6    7 1    
    13    6   72 1    
    14    6   73 1    
    15    7    8 1    
    16    8    9 1    
    17    8   74 1    
    18    8   75 1    
    19    9   10 ar   
    20    9   14 ar   
    21   10   11 ar   
    22   10   76 1    
    23   11   12 ar   
    24   11   48 1    
    25   12   13 ar   
    26   12   77 1    
    27   13   14 ar   
    28   13   15 1    
    29   14   78 1    
    30   15   16 1    
    31   15   79 1    
    32   15   80 1    
    33   16   17 1    
    34   17   18 1    
    35   17   81 1    
    36   17   82 1    
    37   18   19 1    
    38   18   22 1    
    39   18   83 1    
    40   19   20 am   BACKBONE|DICT|INTERRES
    41   19   21 2    
    42   20   84 1    
    43   20   85 1    
    44   22   23 am   BACKBONE|DICT|INTERRES
    45   22   86 1    
    46   23   24 2    
    47   23   25 1    
    48   25   26 1    
    49   25   27 1    
    50   25   87 1    
    51   26   88 1    
    52   26   89 1    
    53   26   90 1    
    54   27   28 am   BACKBONE|DICT|INTERRES
    55   27   91 1    
    56   28   29 2    
    57   28   30 1    
    58   30   31 1    
    59   30   32 1    
    60   30   92 1    
    61   31   93 1    
    62   31   94 1    
    63   31   95 1    
    64   32   33 am   BACKBONE|DICT|INTERRES
    65   32   96 1    
    66   33   34 2    
    67   33   35 1    
    68   35   36 1    
    69   35   37 1    
    70   35   97 1    
    71   36   98 1    
    72   36   99 1    
    73   36  100 1    
    74   37   38 am   BACKBONE|DICT|INTERRES
    75   37  101 1    
    76   38   39 2    
    77   38   40 1    
    78   40   41 1    
    79   40   42 1    
    80   40  102 1    
    81   41  103 1    
    82   41  104 1    
    83   41  105 1    
    84   42   43 am   BACKBONE|DICT|INTERRES
    85   42  106 1    
    86   43   44 2    
    87   43   45 1    
    88   45   46 1    
    89   45   49 1    
    90   45  107 1    
    91   46   47 1    
    92   46  108 1    
    93   46  109 1    
    94   47   48 1    
    95   48  110 1    
    96   48  111 1    
    97   49   50 am   BACKBONE|DICT|INTERRES
    98   49  112 1    
    99   50   51 2    
   100   50   52 1    
   101   52   53 1    
   102   52   54 1    
   103   52  113 1    
   104   53  114 1    
   105   53  115 1    
   106   53  116 1    
   107   54   55 am   BACKBONE|DICT|INTERRES
   108   54  117 1    
   109   55   56 2    
   110   55   57 1    
   111   57   58 1    
   112   57   59 1    
   113   57  118 1    
   114   58  119 1    
   115   58  120 1    
   116   58  121 1    
   117   59   60 am   BACKBONE|DICT|INTERRES
   118   59  122 1    
   119   60   61 2    
   120   60   62 1    
   121   62   63 1    
   122   62   64 1    
   123   62  123 1    
   124   63  124 1    
   125   63  125 1    
   126   63  126 1    
   127   64   65 am   BACKBONE|DICT|INTERRES
   128   64  127 1    
   129   65   66 2    
@<TRIPOS>SUBSTRUCTURE
     1 UNK         1 GROUP             0       ****    0 ROOT    
