@<TRIPOS>MOLECULE
3R134
127   129    1
SMALL
USER_CHARGES


@<TRIPOS>ATOM
      1 CA         27.5974  -43.9899  -50.1148 C.3       0 UNK        -0.1968 
      2 C          29.1188  -44.0153  -50.0994 C.2       0 UNK         0.4852 
      3 O          29.7307  -43.5597  -49.1318 O.2       0 UNK        -0.5359 
      4 N          29.7276  -44.5427  -51.1651 N.am      1 UNK        -0.4300 
      5 CA         31.1646  -44.7601  -51.3030 C.3       1 UNK         0.0863 
      6 C6         31.5908  -44.6608  -52.7904 C.3       11 UNK        -0.0953 
      7 S7         33.3774  -44.3449  -52.9814 S.3       11 UNK        -0.2369 
      8 C8         33.3893  -42.9467  -54.1468 C.3       11 UNK         0.0226 
      9 C9         33.0440  -43.3854  -55.5631 C.ar      11 UNK        -0.0699 
     10 C10        33.9255  -44.2118  -56.2675 C.ar      11 UNK        -0.0804 
     11 C11        33.6358  -44.6094  -57.5750 C.ar      11 UNK        -0.0871 
     12 C12        32.4628  -44.1577  -58.1846 C.ar      11 UNK        -0.1008 
     13 C13        31.5663  -43.3428  -57.4889 C.ar      11 UNK        -0.0735 
     14 C14        31.8619  -42.9559  -56.1774 C.ar      11 UNK        -0.0945 
     15 C15        30.2894  -42.8814  -58.1737 C.3       11 UNK         0.0169 
     16 S16        28.9578  -44.1135  -57.9975 S.3       11 UNK        -0.2669 
     17 C17        27.9560  -43.4085  -56.6427 C.3       11 UNK        -0.0850 
     18 CA         28.2312  -44.0526  -55.2602 C.3       10 UNK         0.0855 
     19 C          27.3972  -43.3203  -54.1716 C.2       10 UNK         0.5543 
     20 N          28.0065  -42.4033  -53.4323 N.am      10 UNK        -0.7343 
     21 O          26.1953  -43.5361  -54.0352 O.2       10 UNK        -0.5027 
     22 N          28.0137  -45.5077  -55.2953 N.am      10 UNK        -0.4495 
     23 C          28.1406  -46.3487  -54.2602 C.2       10 UNK         0.4903 
     24 O          28.4589  -45.9957  -53.1259 O.2       10 UNK        -0.4860 
     25 CA         27.8671  -47.8367  -54.5530 C.3       9 UNK         0.0227 
     26 CB         27.8347  -48.7088  -53.2809 C.3       9 UNK        -0.1964 
     27 N          26.6631  -48.0477  -55.3666 N.am      9 UNK        -0.4231 
     28 C          25.4064  -47.6593  -55.0881 C.2       9 UNK         0.5014 
     29 O          25.0708  -47.1150  -54.0359 O.2       9 UNK        -0.5270 
     30 CA         24.3325  -47.8867  -56.1715 C.3       8 UNK         0.0284 
     31 CB         24.0032  -46.5587  -56.8754 C.3       8 UNK        -0.1977 
     32 N          24.7141  -48.8748  -57.1833 N.am      8 UNK        -0.4342 
     33 C          24.7464  -50.2000  -56.9875 C.2       8 UNK         0.5039 
     34 O          24.3653  -50.7485  -55.9529 O.2       8 UNK        -0.5547 
     35 CA         25.3255  -51.0599  -58.1291 C.3       7 UNK         0.0281 
     36 CB         24.1925  -51.6226  -59.0030 C.3       7 UNK        -0.1963 
     37 N          26.3032  -50.3714  -58.9863 N.am      7 UNK        -0.4444 
     38 C          27.4484  -49.8222  -58.5603 C.2       7 UNK         0.5104 
     39 O          27.7851  -49.7710  -57.3737 O.2       7 UNK        -0.5100 
     40 CA         28.3473  -49.1822  -59.6239 C.3       6 UNK         0.0396 
     41 CB         27.7887  -47.8234  -60.0822 C.3       6 UNK        -0.1801 
     42 N          29.6590  -48.9857  -59.0219 N.am      6 UNK        -0.4747 
     43 C          30.8458  -49.0859  -59.6269 C.2       6 UNK         0.5012 
     44 O          30.9843  -49.2849  -60.8345 O.2       6 UNK        -0.5003 
     45 CA         32.0921  -48.9330  -58.7283 C.3       5 UNK         0.0782 
     46 C46        32.6578  -47.5016  -58.8657 C.3       11 UNK        -0.0868 
     47 S47        34.2422  -47.2823  -57.9926 S.3       11 UNK        -0.2515 
     48 C48        34.5889  -45.5262  -58.3279 C.3       11 UNK         0.0199 
     49 N          31.8218  -49.2753  -57.3233 N.am      5 UNK        -0.4607 
     50 C          31.5718  -50.5085  -56.8664 C.2       4 UNK         0.5031 
     51 O          31.5682  -51.5105  -57.5831 O.2       4 UNK        -0.5119 
     52 CA         31.3146  -50.6349  -55.3539 C.3       4 UNK         0.0263 
     53 CB         30.9486  -52.0693  -54.9291 C.3       4 UNK        -0.1967 
     54 N          32.4899  -50.1965  -54.5986 N.am      4 UNK        -0.4237 
     55 C          32.7259  -48.9350  -54.2207 C.2       3 UNK         0.4908 
     56 O          31.9558  -47.9993  -54.4456 O.2       3 UNK        -0.5102 
     57 CA         34.0646  -48.6671  -53.5206 C.3       3 UNK         0.0241 
     58 CB         34.9936  -47.8414  -54.4248 C.3       3 UNK        -0.1971 
     59 N          33.8354  -47.9348  -52.2791 N.am      3 UNK        -0.4139 
     60 C          33.6569  -48.5028  -51.0785 C.2       2 UNK         0.5016 
     61 O          33.7103  -49.7175  -50.8806 O.2       2 UNK        -0.5319 
     62 CA         33.3829  -47.5614  -49.8897 C.3       2 UNK         0.0286 
     63 CB         34.6777  -47.2945  -49.1052 C.3       2 UNK        -0.1963 
     64 N          32.7996  -46.2821  -50.3029 N.am      2 UNK        -0.4790 
     65 C          31.5325  -46.1349  -50.7100 C.2       1 UNK         0.5024 
     66 O          30.6974  -47.0421  -50.6663 O.2       1 UNK        -0.4888 
     67 H67        27.2379  -42.9655  -50.0384 H         1 UNK         0.0892 
     68 H68        27.2032  -44.5547  -49.2721 H         1 UNK         0.0892 
     69 H69        27.1940  -44.4219  -51.0300 H         1 UNK         0.0892 
     70 H70        29.1659  -45.0001  -51.8851 H         1 UNK         0.3107 
     71 H71        31.6851  -43.9850  -50.7359 H         1 UNK         0.0773 
     72 H72        31.3216  -45.5591  -53.3500 H         1 UNK         0.0680 
     73 H73        31.0488  -43.8454  -53.2702 H         1 UNK         0.0680 
     74 H74        32.7098  -42.1690  -53.7949 H         1 UNK         0.0650 
     75 H75        34.3858  -42.5031  -54.1480 H         1 UNK         0.0650 
     76 H76        34.8346  -44.5528  -55.7913 H         1 UNK         0.1397 
     77 H77        32.2354  -44.4565  -59.1989 H         1 UNK         0.1363 
     78 H78        31.1755  -42.3169  -55.6397 H         1 UNK         0.1355 
     79 H79        30.4816  -42.7336  -59.2375 H         1 UNK         0.0707 
     80 H80        29.9805  -41.9075  -57.7929 H         1 UNK         0.0707 
     81 H81        26.9051  -43.5371  -56.9103 H         1 UNK         0.1034 
     82 H82        28.1125  -42.3292  -56.6001 H         1 UNK         0.1034 
     83 H83        29.2877  -43.9112  -55.0274 H         1 UNK         0.0482 
     84 H84        28.9842  -42.1944  -53.5523 H         1 UNK         0.3460 
     85 H85        27.4684  -41.8959  -52.7482 H         1 UNK         0.3460 
     86 H86        27.7446  -45.8844  -56.1910 H         1 UNK         0.2989 
     87 H87        28.7064  -48.1795  -55.1595 H         1 UNK         0.0559 
     88 H88        27.6844  -49.7603  -53.5252 H         1 UNK         0.0848 
     89 H89        27.0393  -48.4028  -52.6010 H         1 UNK         0.0848 
     90 H90        28.7764  -48.6341  -52.7345 H         1 UNK         0.0848 
     91 H91        26.8280  -48.5565  -56.2305 H         1 UNK         0.3144 
     92 H92        23.4299  -48.2403  -55.6680 H         1 UNK         0.0727 
     93 H93        23.1919  -46.6795  -57.5936 H         1 UNK         0.0790 
     94 H94        24.8669  -46.1557  -57.4059 H         1 UNK         0.0790 
     95 H95        23.6846  -45.8038  -56.1546 H         1 UNK         0.0790 
     96 H96        25.0217  -48.5200  -58.0769 H         1 UNK         0.3215 
     97 H97        25.8432  -51.8998  -57.6605 H         1 UNK         0.0863 
     98 H98        24.5732  -52.3228  -59.7469 H         1 UNK         0.0808 
     99 H99        23.6553  -50.8313  -59.5277 H         1 UNK         0.0808 
    100 H100       23.4640  -52.1636  -58.3969 H         1 UNK         0.0808 
    101 H101       26.1028  -50.3600  -59.9767 H         1 UNK         0.3118 
    102 H102       28.4221  -49.8644  -60.4734 H         1 UNK         0.0546 
    103 H103       26.8073  -47.9330  -60.5448 H         1 UNK         0.0828 
    104 H104       28.4414  -47.3584  -60.8213 H         1 UNK         0.0828 
    105 H105       27.6841  -47.1269  -59.2489 H         1 UNK         0.0828 
    106 H106       29.6365  -48.9035  -58.0131 H         1 UNK         0.3005 
    107 H107       32.8381  -49.6362  -59.1060 H         1 UNK         0.1257 
    108 H108       32.8167  -47.2451  -59.9153 H         1 UNK         0.0775 
    109 H109       31.9340  -46.7856  -58.4744 H         1 UNK         0.0775 
    110 H110       35.6173  -45.3089  -58.0354 H         1 UNK         0.0840 
    111 H111       34.5342  -45.3396  -59.4016 H         1 UNK         0.0840 
    112 H112       31.8572  -48.5128  -56.6572 H         1 UNK         0.2987 
    113 H113       30.4617  -49.9959  -55.1140 H         1 UNK         0.0785 
    114 H114       31.7531  -52.7745  -55.1415 H         1 UNK         0.0798 
    115 H115       30.0603  -52.4167  -55.4587 H         1 UNK         0.0798 
    116 H116       30.7286  -52.1218  -53.8627 H         1 UNK         0.0798 
    117 H117       33.1899  -50.9009  -54.4125 H         1 UNK         0.3079 
    118 H118       34.5602  -49.6155  -53.3017 H         1 UNK         0.0794 
    119 H119       34.5354  -46.8966  -54.7216 H         1 UNK         0.0786 
    120 H120       35.2329  -48.3889  -55.3370 H         1 UNK         0.0786 
    121 H121       35.9365  -47.6149  -53.9268 H         1 UNK         0.0786 
    122 H122       33.7091  -46.9361  -52.3649 H         1 UNK         0.3032 
    123 H123       32.6782  -48.0693  -49.2267 H         1 UNK         0.1094 
    124 H124       34.4884  -46.6837  -48.2222 H         1 UNK         0.0794 
    125 H125       35.1240  -48.2287  -48.7609 H         1 UNK         0.0794 
    126 H126       35.4232  -46.7831  -49.7155 H         1 UNK         0.0794 
    127 H127       33.4285  -45.4937  -50.3726 H         1 UNK         0.3016 
@<TRIPOS>BOND
     1    1    2 1    
     2    1   67 1    
     3    1   68 1    
     4    1   69 1    
     5    2    3 2    
     6    2    4 am   BACKBONE|DICT|INTERRES
     7    4    5 1    
     8    4   70 1    
     9    5    6 1    
    10    5   65 1    
    11    5   71 1    
    12    6    7 1    
    13    6   72 1    
    14    6   73 1    
    15    7    8 1    
    16    8    9 1    
    17    8   74 1    
    18    8   75 1    
    19    9   10 ar   
    20    9   14 ar   
    21   10   11 ar   
    22   10   76 1    
    23   11   12 ar   
    24   11   48 1    
    25   12   13 ar   
    26   12   77 1    
    27   13   14 ar   
    28   13   15 1    
    29   14   78 1    
    30   15   16 1    
    31   15   79 1    
    32   15   80 1    
    33   16   17 1    
    34   17   18 1    
    35   17   81 1    
    36   17   82 1    
    37   18   19 1    
    38   18   22 1    
    39   18   83 1    
    40   19   20 am   BACKBONE|DICT|INTERRES
    41   19   21 2    
    42   20   84 1    
    43   20   85 1    
    44   22   23 am   BACKBONE|DICT|INTERRES
    45   22   86 1    
    46   23   24 2    
    47   23   25 1    
    48   25   26 1    
    49   25   27 1    
    50   25   87 1    
    51   26   88 1    
    52   26   89 1    
    53   26   90 1    
    54   27   28 am   BACKBONE|DICT|INTERRES
    55   27   91 1    
    56   28   29 2    
    57   28   30 1    
    58   30   31 1    
    59   30   32 1    
    60   30   92 1    
    61   31   93 1    
    62   31   94 1    
    63   31   95 1    
    64   32   33 am   BACKBONE|DICT|INTERRES
    65   32   96 1    
    66   33   34 2    
    67   33   35 1    
    68   35   36 1    
    69   35   37 1    
    70   35   97 1    
    71   36   98 1    
    72   36   99 1    
    73   36  100 1    
    74   37   38 am   BACKBONE|DICT|INTERRES
    75   37  101 1    
    76   38   39 2    
    77   38   40 1    
    78   40   41 1    
    79   40   42 1    
    80   40  102 1    
    81   41  103 1    
    82   41  104 1    
    83   41  105 1    
    84   42   43 am   BACKBONE|DICT|INTERRES
    85   42  106 1    
    86   43   44 2    
    87   43   45 1    
    88   45   46 1    
    89   45   49 1    
    90   45  107 1    
    91   46   47 1    
    92   46  108 1    
    93   46  109 1    
    94   47   48 1    
    95   48  110 1    
    96   48  111 1    
    97   49   50 am   BACKBONE|DICT|INTERRES
    98   49  112 1    
    99   50   51 2    
   100   50   52 1    
   101   52   53 1    
   102   52   54 1    
   103   52  113 1    
   104   53  114 1    
   105   53  115 1    
   106   53  116 1    
   107   54   55 am   BACKBONE|DICT|INTERRES
   108   54  117 1    
   109   55   56 2    
   110   55   57 1    
   111   57   58 1    
   112   57   59 1    
   113   57  118 1    
   114   58  119 1    
   115   58  120 1    
   116   58  121 1    
   117   59   60 am   BACKBONE|DICT|INTERRES
   118   59  122 1    
   119   60   61 2    
   120   60   62 1    
   121   62   63 1    
   122   62   64 1    
   123   62  123 1    
   124   63  124 1    
   125   63  125 1    
   126   63  126 1    
   127   64   65 am   BACKBONE|DICT|INTERRES
   128   64  127 1    
   129   65   66 2    
@<TRIPOS>SUBSTRUCTURE
     1 UNK         1 GROUP             0       ****    0 ROOT    
