@<TRIPOS>MOLECULE
3R134
127   129    1
SMALL
USER_CHARGES


@<TRIPOS>ATOM
      1 CA         34.1688  -47.0893  -57.9304 C.3       0 UNK        -0.1968 
      2 C          34.0378  -47.0336  -56.4165 C.2       0 UNK         0.4852 
      3 O          33.9786  -48.0827  -55.7754 O.2       0 UNK        -0.5359 
      4 N          34.0239  -45.8199  -55.8453 N.am      1 UNK        -0.4300 
      5 CA         33.8254  -45.5079  -54.4200 C.3       1 UNK         0.0863 
      6 C6         34.0118  -43.9951  -54.1342 C.3       11 UNK        -0.0953 
      7 S7         33.0588  -42.9079  -55.2472 S.3       11 UNK        -0.2369 
      8 C8         32.1215  -41.8936  -54.0641 C.3       11 UNK         0.0226 
      9 C9         30.8844  -42.6209  -53.5649 C.ar      11 UNK        -0.0699 
     10 C10        30.8519  -43.1936  -52.2898 C.ar      11 UNK        -0.0804 
     11 C11        29.6985  -43.8410  -51.8336 C.ar      11 UNK        -0.0871 
     12 C12        28.5761  -43.9155  -52.6649 C.ar      11 UNK        -0.1008 
     13 C13        28.6077  -43.3635  -53.9486 C.ar      11 UNK        -0.0735 
     14 C14        29.7598  -42.7078  -54.3877 C.ar      11 UNK        -0.0945 
     15 C15        27.4074  -43.4871  -54.8745 C.3       11 UNK         0.0169 
     16 S16        27.1047  -45.2080  -55.3862 S.3       11 UNK        -0.2669 
     17 C17        28.6927  -45.6942  -56.1562 C.3       11 UNK        -0.0850 
     18 CA         28.7303  -45.4766  -57.6900 C.3       10 UNK         0.0855 
     19 C          30.1617  -45.7597  -58.2276 C.2       10 UNK         0.5543 
     20 N          31.0000  -44.7366  -58.3234 N.am      10 UNK        -0.7343 
     21 O          30.5268  -46.8967  -58.5188 O.2       10 UNK        -0.5027 
     22 N          27.6889  -46.2653  -58.3669 N.am      10 UNK        -0.4495 
     23 C          27.4472  -46.2829  -59.6847 C.2       10 UNK         0.4903 
     24 O          28.0304  -45.5751  -60.5068 O.2       10 UNK        -0.4860 
     25 CA         26.3414  -47.2363  -60.1670 C.3       9 UNK         0.0227 
     26 CB         26.8111  -48.7004  -60.1267 C.3       9 UNK        -0.1964 
     27 N          25.1114  -47.0822  -59.3882 N.am      9 UNK        -0.4231 
     28 C          24.2681  -46.0468  -59.4961 C.2       9 UNK         0.5014 
     29 O          24.4054  -45.1436  -60.3226 O.2       9 UNK        -0.5270 
     30 CA         23.0749  -45.9751  -58.5230 C.3       8 UNK         0.0284 
     31 CB         21.8211  -46.6439  -59.1216 C.3       8 UNK        -0.1977 
     32 N          23.3643  -46.4580  -57.1647 N.am      8 UNK        -0.4342 
     33 C          23.6036  -47.7090  -56.7512 C.2       8 UNK         0.5039 
     34 O          23.5528  -48.7041  -57.4781 O.2       8 UNK        -0.5547 
     35 CA         23.9899  -47.8591  -55.2697 C.3       7 UNK         0.0281 
     36 CB         22.7645  -48.2741  -54.4394 C.3       7 UNK        -0.1963 
     37 N          25.0822  -48.8067  -55.0201 N.am      7 UNK        -0.4444 
     38 C          26.2541  -48.8697  -55.6680 C.2       7 UNK         0.5104 
     39 O          26.5503  -48.1958  -56.6551 O.2       7 UNK        -0.5100 
     40 CA         27.3055  -49.8185  -55.0749 C.3       6 UNK         0.0396 
     41 CB         28.0366  -50.6066  -56.1756 C.3       6 UNK        -0.1801 
     42 N          28.2905  -49.0691  -54.2949 N.am      6 UNK        -0.4747 
     43 C          28.0676  -48.4543  -53.1239 C.2       6 UNK         0.5012 
     44 O          26.9819  -48.4843  -52.5414 O.2       6 UNK        -0.5003 
     45 CA         29.2828  -47.7542  -52.4690 C.3       5 UNK         0.0782 
     46 C46        28.9240  -47.0967  -51.1110 C.3       11 UNK        -0.0868 
     47 S47        30.3130  -46.1427  -50.4077 S.3       11 UNK        -0.2515 
     48 C48        29.6637  -44.4413  -50.4359 C.3       11 UNK         0.0199 
     49 N          30.3753  -48.7233  -52.3224 N.am      5 UNK        -0.4607 
     50 C          31.2389  -49.0601  -53.2847 C.2       4 UNK         0.5031 
     51 O          31.2710  -48.5191  -54.3904 O.2       4 UNK        -0.5119 
     52 CA         32.1094  -50.2865  -53.0029 C.3       4 UNK         0.0263 
     53 CB         31.3488  -51.5621  -53.4252 C.3       4 UNK        -0.1967 
     54 N          33.3806  -50.1830  -53.7170 N.am      4 UNK        -0.4237 
     55 C          34.4408  -50.9733  -53.4950 C.2       3 UNK         0.4908 
     56 O          34.4570  -51.8869  -52.6687 O.2       3 UNK        -0.5102 
     57 CA         35.7106  -50.6848  -54.3048 C.3       3 UNK         0.0241 
     58 CB         35.5390  -51.0761  -55.7830 C.3       3 UNK        -0.1971 
     59 N          36.0755  -49.2744  -54.1890 N.am      3 UNK        -0.4139 
     60 C          36.8157  -48.7698  -53.1911 C.2       2 UNK         0.5016 
     61 O          37.3387  -49.4575  -52.3128 O.2       2 UNK        -0.5319 
     62 CA         37.0271  -47.2456  -53.1578 C.3       2 UNK         0.0286 
     63 CB         38.4113  -46.8835  -53.7208 C.3       2 UNK        -0.1963 
     64 N          36.0056  -46.4945  -53.8892 N.am      2 UNK        -0.4790 
     65 C          34.7446  -46.3075  -53.4720 C.2       1 UNK         0.5024 
     66 O          34.3055  -46.7324  -52.4032 O.2       1 UNK        -0.4888 
     67 H67        33.2816  -47.5518  -58.3623 H         1 UNK         0.0892 
     68 H68        34.2844  -46.0984  -58.3685 H         1 UNK         0.0892 
     69 H69        35.0353  -47.6878  -58.2098 H         1 UNK         0.0892 
     70 H70        34.0789  -45.0037  -56.4381 H         1 UNK         0.3107 
     71 H71        32.7953  -45.7816  -54.1803 H         1 UNK         0.0773 
     72 H72        33.7436  -43.7778  -53.0988 H         1 UNK         0.0680 
     73 H73        35.0610  -43.7107  -54.2370 H         1 UNK         0.0680 
     74 H74        31.8186  -40.9708  -54.5609 H         1 UNK         0.0650 
     75 H75        32.7647  -41.5930  -53.2355 H         1 UNK         0.0650 
     76 H76        31.7210  -43.1316  -51.6492 H         1 UNK         0.1397 
     77 H77        27.6791  -44.4138  -52.3242 H         1 UNK         0.1363 
     78 H78        29.7903  -42.2742  -55.3780 H         1 UNK         0.1355 
     79 H79        27.5361  -42.8719  -55.7664 H         1 UNK         0.0707 
     80 H80        26.5202  -43.1081  -54.3655 H         1 UNK         0.0707 
     81 H81        28.8611  -46.7489  -55.9324 H         1 UNK         0.1034 
     82 H82        29.5147  -45.1669  -55.6715 H         1 UNK         0.1034 
     83 H83        28.5014  -44.4278  -57.8880 H         1 UNK         0.0482 
     84 H84        31.9287  -44.8985  -58.6757 H         1 UNK         0.3460 
     85 H85        30.7138  -43.8017  -58.0799 H         1 UNK         0.3460 
     86 H86        27.1763  -46.9111  -57.7681 H         1 UNK         0.2989 
     87 H87        26.1185  -46.9906  -61.2076 H         1 UNK         0.0559 
     88 H88        27.7181  -48.8332  -60.7179 H         1 UNK         0.0848 
     89 H89        26.0555  -49.3701  -60.5375 H         1 UNK         0.0848 
     90 H90        27.0348  -49.0320  -59.1126 H         1 UNK         0.0848 
     91 H91        24.9101  -47.7844  -58.6820 H         1 UNK         0.3144 
     92 H92        22.8450  -44.9150  -58.4036 H         1 UNK         0.0727 
     93 H93        20.9640  -46.5499  -58.4549 H         1 UNK         0.0790 
     94 H94        21.9769  -47.7042  -59.3219 H         1 UNK         0.0790 
     95 H95        21.5484  -46.1758  -60.0684 H         1 UNK         0.0790 
     96 H96        23.4633  -45.7221  -56.4781 H         1 UNK         0.3215 
     97 H97        24.3393  -46.8906  -54.9057 H         1 UNK         0.0863 
     98 H98        22.9920  -48.2921  -53.3733 H         1 UNK         0.0808 
     99 H99        22.4041  -49.2635  -54.7244 H         1 UNK         0.0808 
    100 H100       21.9394  -47.5744  -54.5803 H         1 UNK         0.0808 
    101 H101       24.9761  -49.3917  -54.2042 H         1 UNK         0.3118 
    102 H102       26.8105  -50.5352  -54.4163 H         1 UNK         0.0546 
    103 H103       27.3285  -51.1621  -56.7918 H         1 UNK         0.0828 
    104 H104       28.7335  -51.3288  -55.7504 H         1 UNK         0.0828 
    105 H105       28.5997  -49.9492  -56.8400 H         1 UNK         0.0828 
    106 H106       29.2184  -48.9869  -54.6951 H         1 UNK         0.3005 
    107 H107       29.5931  -46.9579  -53.1510 H         1 UNK         0.1257 
    108 H108       28.6343  -47.8568  -50.3831 H         1 UNK         0.0775 
    109 H109       28.0567  -46.4441  -51.2169 H         1 UNK         0.0775 
    110 H110       28.6503  -44.4223  -50.0317 H         1 UNK         0.0840 
    111 H111       30.2644  -43.8291  -49.7614 H         1 UNK         0.0840 
    112 H112       30.3878  -49.2378  -51.4537 H         1 UNK         0.2987 
    113 H113       32.3187  -50.3231  -51.9316 H         1 UNK         0.0785 
    114 H114       31.8876  -52.4676  -53.1473 H         1 UNK         0.0798 
    115 H115       31.1838  -51.5893  -54.5031 H         1 UNK         0.0798 
    116 H116       30.3705  -51.6162  -52.9454 H         1 UNK         0.0798 
    117 H117       33.4349  -49.4355  -54.4088 H         1 UNK         0.3079 
    118 H118       36.5169  -51.2987  -53.8970 H         1 UNK         0.0794 
    119 H119       35.3160  -52.1396  -55.8772 H         1 UNK         0.0786 
    120 H120       36.4499  -50.8847  -56.3504 H         1 UNK         0.0786 
    121 H121       34.7259  -50.5326  -56.2642 H         1 UNK         0.0786 
    122 H122       35.6026  -48.6370  -54.8226 H         1 UNK         0.3032 
    123 H123       36.9924  -46.9389  -52.1097 H         1 UNK         0.1094 
    124 H124       38.5050  -47.1585  -54.7722 H         1 UNK         0.0794 
    125 H125       38.6093  -45.8150  -53.6326 H         1 UNK         0.0794 
    126 H126       39.2018  -47.4028  -53.1769 H         1 UNK         0.0794 
    127 H127       36.2732  -46.1114  -54.7848 H         1 UNK         0.3016 
@<TRIPOS>BOND
     1    1    2 1    
     2    1   67 1    
     3    1   68 1    
     4    1   69 1    
     5    2    3 2    
     6    2    4 am   BACKBONE|DICT|INTERRES
     7    4    5 1    
     8    4   70 1    
     9    5    6 1    
    10    5   65 1    
    11    5   71 1    
    12    6    7 1    
    13    6   72 1    
    14    6   73 1    
    15    7    8 1    
    16    8    9 1    
    17    8   74 1    
    18    8   75 1    
    19    9   10 ar   
    20    9   14 ar   
    21   10   11 ar   
    22   10   76 1    
    23   11   12 ar   
    24   11   48 1    
    25   12   13 ar   
    26   12   77 1    
    27   13   14 ar   
    28   13   15 1    
    29   14   78 1    
    30   15   16 1    
    31   15   79 1    
    32   15   80 1    
    33   16   17 1    
    34   17   18 1    
    35   17   81 1    
    36   17   82 1    
    37   18   19 1    
    38   18   22 1    
    39   18   83 1    
    40   19   20 am   BACKBONE|DICT|INTERRES
    41   19   21 2    
    42   20   84 1    
    43   20   85 1    
    44   22   23 am   BACKBONE|DICT|INTERRES
    45   22   86 1    
    46   23   24 2    
    47   23   25 1    
    48   25   26 1    
    49   25   27 1    
    50   25   87 1    
    51   26   88 1    
    52   26   89 1    
    53   26   90 1    
    54   27   28 am   BACKBONE|DICT|INTERRES
    55   27   91 1    
    56   28   29 2    
    57   28   30 1    
    58   30   31 1    
    59   30   32 1    
    60   30   92 1    
    61   31   93 1    
    62   31   94 1    
    63   31   95 1    
    64   32   33 am   BACKBONE|DICT|INTERRES
    65   32   96 1    
    66   33   34 2    
    67   33   35 1    
    68   35   36 1    
    69   35   37 1    
    70   35   97 1    
    71   36   98 1    
    72   36   99 1    
    73   36  100 1    
    74   37   38 am   BACKBONE|DICT|INTERRES
    75   37  101 1    
    76   38   39 2    
    77   38   40 1    
    78   40   41 1    
    79   40   42 1    
    80   40  102 1    
    81   41  103 1    
    82   41  104 1    
    83   41  105 1    
    84   42   43 am   BACKBONE|DICT|INTERRES
    85   42  106 1    
    86   43   44 2    
    87   43   45 1    
    88   45   46 1    
    89   45   49 1    
    90   45  107 1    
    91   46   47 1    
    92   46  108 1    
    93   46  109 1    
    94   47   48 1    
    95   48  110 1    
    96   48  111 1    
    97   49   50 am   BACKBONE|DICT|INTERRES
    98   49  112 1    
    99   50   51 2    
   100   50   52 1    
   101   52   53 1    
   102   52   54 1    
   103   52  113 1    
   104   53  114 1    
   105   53  115 1    
   106   53  116 1    
   107   54   55 am   BACKBONE|DICT|INTERRES
   108   54  117 1    
   109   55   56 2    
   110   55   57 1    
   111   57   58 1    
   112   57   59 1    
   113   57  118 1    
   114   58  119 1    
   115   58  120 1    
   116   58  121 1    
   117   59   60 am   BACKBONE|DICT|INTERRES
   118   59  122 1    
   119   60   61 2    
   120   60   62 1    
   121   62   63 1    
   122   62   64 1    
   123   62  123 1    
   124   63  124 1    
   125   63  125 1    
   126   63  126 1    
   127   64   65 am   BACKBONE|DICT|INTERRES
   128   64  127 1    
   129   65   66 2    
@<TRIPOS>SUBSTRUCTURE
     1 UNK         1 GROUP             0       ****    0 ROOT    
