@<TRIPOS>MOLECULE
3R134
127   129    1
SMALL
USER_CHARGES


@<TRIPOS>ATOM
      1 CA         33.5754  -43.4759  -48.9022 C.3       0 UNK        -0.1968 
      2 C          33.4312  -44.0429  -50.3070 C.2       0 UNK         0.4852 
      3 O          34.1996  -43.6733  -51.1964 O.2       0 UNK        -0.5359 
      4 N          32.4491  -44.9299  -50.5126 N.am      1 UNK        -0.4300 
      5 CA         32.1789  -45.6119  -51.7824 C.3       1 UNK         0.0863 
      6 C6         30.7993  -46.3154  -51.7765 C.3       11 UNK        -0.0953 
      7 S7         29.4355  -45.1440  -51.4565 S.3       11 UNK        -0.2369 
      8 C8         28.6012  -45.0269  -53.0689 C.3       11 UNK         0.0226 
      9 C9         29.4014  -44.2407  -54.0959 C.ar      11 UNK        -0.0699 
     10 C10        30.3023  -44.8968  -54.9381 C.ar      11 UNK        -0.0804 
     11 C11        31.0007  -44.1981  -55.9271 C.ar      11 UNK        -0.0871 
     12 C12        30.7910  -42.8220  -56.0612 C.ar      11 UNK        -0.1008 
     13 C13        29.8903  -42.1520  -55.2273 C.ar      11 UNK        -0.0735 
     14 C14        29.2018  -42.8658  -54.2425 C.ar      11 UNK        -0.0945 
     15 C15        29.6657  -40.6549  -55.3820 C.3       11 UNK         0.0169 
     16 S16        28.0911  -40.2772  -56.2174 S.3       11 UNK        -0.2669 
     17 C17        28.3934  -40.8970  -57.9104 C.3       11 UNK        -0.0850 
     18 CA         27.3834  -41.9917  -58.3487 C.3       10 UNK         0.0855 
     19 C          27.6101  -42.4010  -59.8361 C.2       10 UNK         0.5543 
     20 N          27.8193  -43.6698  -60.1684 N.am      10 UNK        -0.7343 
     21 O          27.5895  -41.5417  -60.7140 O.2       10 UNK        -0.5027 
     22 N          27.3421  -43.1188  -57.4033 N.am      10 UNK        -0.4495 
     23 C          26.3165  -43.9677  -57.2822 C.2       10 UNK         0.4903 
     24 O          25.2484  -43.8609  -57.8893 O.2       10 UNK        -0.4860 
     25 CA         26.5210  -45.1412  -56.3120 C.3       9 UNK         0.0227 
     26 CB         25.6562  -44.9594  -55.0544 C.3       9 UNK        -0.1964 
     27 N          26.2244  -46.4404  -56.9188 N.am      9 UNK        -0.4231 
     28 C          26.7825  -46.9290  -58.0365 C.2       9 UNK         0.5014 
     29 O          27.5832  -46.3082  -58.7400 O.2       9 UNK        -0.5270 
     30 CA         26.4018  -48.3735  -58.3934 C.3       8 UNK         0.0284 
     31 CB         27.1979  -48.9316  -59.5903 C.3       8 UNK        -0.1977 
     32 N          26.5981  -49.2390  -57.2283 N.am      8 UNK        -0.4342 
     33 C          25.8409  -50.3025  -56.9243 C.2       8 UNK         0.5039 
     34 O          24.8465  -50.6271  -57.5755 O.2       8 UNK        -0.5547 
     35 CA         26.2444  -51.1753  -55.7179 C.3       7 UNK         0.0281 
     36 CB         26.5905  -52.6025  -56.1771 C.3       7 UNK        -0.1963 
     37 N          27.3799  -50.6390  -54.9651 N.am      7 UNK        -0.4444 
     38 C          27.2805  -49.7622  -53.9549 C.2       7 UNK         0.5104 
     39 O          26.2081  -49.3506  -53.5124 O.2       7 UNK        -0.5100 
     40 CA         28.5960  -49.2249  -53.3522 C.3       6 UNK         0.0396 
     41 CB         28.9524  -49.9950  -52.0726 C.3       6 UNK        -0.1801 
     42 N          29.7364  -49.2521  -54.2787 N.am      6 UNK        -0.4747 
     43 C          29.7621  -48.6280  -55.4695 C.2       6 UNK         0.5012 
     44 O          28.8520  -47.8937  -55.8435 O.2       6 UNK        -0.5003 
     45 CA         30.9325  -48.9180  -56.4387 C.3       5 UNK         0.0782 
     46 C46        31.9147  -47.7258  -56.5475 C.3       11 UNK        -0.0868 
     47 S47        31.3197  -46.3948  -57.6466 S.3       11 UNK        -0.2515 
     48 C48        31.9988  -44.9052  -56.8403 C.3       11 UNK         0.0199 
     49 N          31.6404  -50.1639  -56.1254 N.am      5 UNK        -0.4607 
     50 C          31.0859  -51.3859  -56.1294 C.2       4 UNK         0.5031 
     51 O          29.9241  -51.6000  -56.4767 O.2       4 UNK        -0.5119 
     52 CA         31.9350  -52.5559  -55.5972 C.3       4 UNK         0.0263 
     53 CB         32.5340  -53.3556  -56.7646 C.3       4 UNK        -0.1967 
     54 N          33.0112  -52.1549  -54.6833 N.am      4 UNK        -0.4237 
     55 C          32.8549  -51.4846  -53.5317 C.2       3 UNK         0.4908 
     56 O          31.7610  -51.1406  -53.0844 O.2       3 UNK        -0.5102 
     57 CA         34.1306  -51.0759  -52.7733 C.3       3 UNK         0.0241 
     58 CB         35.3863  -51.8822  -53.1776 C.3       3 UNK        -0.1971 
     59 N          34.3939  -49.6356  -52.8849 N.am      3 UNK        -0.4139 
     60 C          34.5264  -48.9145  -54.0076 C.2       2 UNK         0.5016 
     61 O          34.3595  -49.3696  -55.1416 O.2       2 UNK        -0.5319 
     62 CA         34.9023  -47.4309  -53.8255 C.3       2 UNK         0.0286 
     63 CB         35.4558  -46.8057  -55.1199 C.3       2 UNK        -0.1963 
     64 N          33.7813  -46.6162  -53.3486 N.am      2 UNK        -0.4790 
     65 C          33.3061  -46.6161  -52.0967 C.2       1 UNK         0.5024 
     66 O          33.7245  -47.3636  -51.2082 O.2       1 UNK        -0.4888 
     67 H67        34.5600  -43.7145  -48.5008 H         1 UNK         0.0892 
     68 H68        33.4686  -42.3917  -48.9224 H         1 UNK         0.0892 
     69 H69        32.8253  -43.8774  -48.2210 H         1 UNK         0.0892 
     70 H70        31.8543  -45.2006  -49.7429 H         1 UNK         0.3107 
     71 H71        32.1677  -44.8504  -52.5657 H         1 UNK         0.0773 
     72 H72        30.6209  -46.8355  -52.7180 H         1 UNK         0.0680 
     73 H73        30.7663  -47.0849  -51.0028 H         1 UNK         0.0680 
     74 H74        28.3753  -46.0199  -53.4535 H         1 UNK         0.0650 
     75 H75        27.6374  -44.5427  -52.9098 H         1 UNK         0.0650 
     76 H76        30.4435  -45.9595  -54.8333 H         1 UNK         0.1397 
     77 H77        31.3325  -42.2681  -56.8160 H         1 UNK         0.1363 
     78 H78        28.5002  -42.3514  -53.5998 H         1 UNK         0.1355 
     79 H79        29.6601  -40.1885  -54.3957 H         1 UNK         0.0707 
     80 H80        30.4876  -40.1921  -55.9308 H         1 UNK         0.0707 
     81 H81        28.3316  -40.0384  -58.5819 H         1 UNK         0.1034 
     82 H82        29.4156  -41.2654  -58.0010 H         1 UNK         0.1034 
     83 H83        26.3953  -41.5278  -58.3296 H         1 UNK         0.0482 
     84 H84        27.9610  -43.9036  -61.1377 H         1 UNK         0.3460 
     85 H85        27.8046  -44.4100  -59.4745 H         1 UNK         0.3460 
     86 H86        28.1808  -43.2731  -56.8608 H         1 UNK         0.2989 
     87 H87        27.5693  -45.1701  -56.0117 H         1 UNK         0.0559 
     88 H88        25.8718  -44.0068  -54.5686 H         1 UNK         0.0848 
     89 H89        25.8418  -45.7477  -54.3246 H         1 UNK         0.0848 
     90 H90        24.5920  -44.9669  -55.2935 H         1 UNK         0.0848 
     91 H91        25.5723  -47.0290  -56.4222 H         1 UNK         0.3144 
     92 H92        25.3442  -48.3524  -58.6645 H         1 UNK         0.0727 
     93 H93        28.2675  -48.9630  -59.3787 H         1 UNK         0.0790 
     94 H94        27.0565  -48.3132  -60.4776 H         1 UNK         0.0790 
     95 H95        26.8762  -49.9414  -59.8455 H         1 UNK         0.0790 
     96 H96        27.3701  -48.9768  -56.6205 H         1 UNK         0.3215 
     97 H97        25.3741  -51.2368  -55.0608 H         1 UNK         0.0863 
     98 H98        26.8538  -53.2395  -55.3325 H         1 UNK         0.0808 
     99 H99        27.4269  -52.6096  -56.8770 H         1 UNK         0.0808 
    100 H100       25.7424  -53.0688  -56.6802 H         1 UNK         0.0808 
    101 H101       28.3021  -50.9162  -55.2858 H         1 UNK         0.3118 
    102 H102       28.4216  -48.1871  -53.0729 H         1 UNK         0.0546 
    103 H103       29.1369  -51.0505  -52.2763 H         1 UNK         0.0828 
    104 H104       28.1420  -49.9399  -51.3446 H         1 UNK         0.0828 
    105 H105       29.8432  -49.5847  -51.5966 H         1 UNK         0.0828 
    106 H106       30.5066  -49.8640  -54.0229 H         1 UNK         0.3005 
    107 H107       30.4790  -49.0714  -57.4210 H         1 UNK         0.1257 
    108 H108       32.1645  -47.3360  -55.5610 H         1 UNK         0.0775 
    109 H109       32.8584  -48.0638  -56.9786 H         1 UNK         0.0775 
    110 H110       32.8975  -45.1531  -56.2759 H         1 UNK         0.0840 
    111 H111       32.3236  -44.2284  -57.6321 H         1 UNK         0.0840 
    112 H112       32.6033  -50.0648  -55.8152 H         1 UNK         0.2987 
    113 H113       31.2626  -53.2114  -55.0401 H         1 UNK         0.0785 
    114 H114       31.7534  -53.6914  -57.4490 H         1 UNK         0.0798 
    115 H115       33.0560  -54.2452  -56.4114 H         1 UNK         0.0798 
    116 H116       33.2395  -52.7576  -57.3432 H         1 UNK         0.0798 
    117 H117       33.9545  -52.3511  -54.9856 H         1 UNK         0.3079 
    118 H118       33.9338  -51.2768  -51.7191 H         1 UNK         0.0794 
    119 H119       36.2264  -51.6424  -52.5257 H         1 UNK         0.0786 
    120 H120       35.7020  -51.6776  -54.2014 H         1 UNK         0.0786 
    121 H121       35.2130  -52.9557  -53.0883 H         1 UNK         0.0786 
    122 H122       34.4275  -49.1238  -52.0090 H         1 UNK         0.3032 
    123 H123       35.7002  -47.3904  -53.0799 H         1 UNK         0.1094 
    124 H124       34.7145  -46.7900  -55.9185 H         1 UNK         0.0794 
    125 H125       35.7935  -45.7824  -54.9545 H         1 UNK         0.0794 
    126 H126       36.3131  -47.3713  -55.4878 H         1 UNK         0.0794 
    127 H127       33.3911  -45.9636  -54.0117 H         1 UNK         0.3016 
@<TRIPOS>BOND
     1    1    2 1    
     2    1   67 1    
     3    1   68 1    
     4    1   69 1    
     5    2    3 2    
     6    2    4 am   BACKBONE|DICT|INTERRES
     7    4    5 1    
     8    4   70 1    
     9    5    6 1    
    10    5   65 1    
    11    5   71 1    
    12    6    7 1    
    13    6   72 1    
    14    6   73 1    
    15    7    8 1    
    16    8    9 1    
    17    8   74 1    
    18    8   75 1    
    19    9   10 ar   
    20    9   14 ar   
    21   10   11 ar   
    22   10   76 1    
    23   11   12 ar   
    24   11   48 1    
    25   12   13 ar   
    26   12   77 1    
    27   13   14 ar   
    28   13   15 1    
    29   14   78 1    
    30   15   16 1    
    31   15   79 1    
    32   15   80 1    
    33   16   17 1    
    34   17   18 1    
    35   17   81 1    
    36   17   82 1    
    37   18   19 1    
    38   18   22 1    
    39   18   83 1    
    40   19   20 am   BACKBONE|DICT|INTERRES
    41   19   21 2    
    42   20   84 1    
    43   20   85 1    
    44   22   23 am   BACKBONE|DICT|INTERRES
    45   22   86 1    
    46   23   24 2    
    47   23   25 1    
    48   25   26 1    
    49   25   27 1    
    50   25   87 1    
    51   26   88 1    
    52   26   89 1    
    53   26   90 1    
    54   27   28 am   BACKBONE|DICT|INTERRES
    55   27   91 1    
    56   28   29 2    
    57   28   30 1    
    58   30   31 1    
    59   30   32 1    
    60   30   92 1    
    61   31   93 1    
    62   31   94 1    
    63   31   95 1    
    64   32   33 am   BACKBONE|DICT|INTERRES
    65   32   96 1    
    66   33   34 2    
    67   33   35 1    
    68   35   36 1    
    69   35   37 1    
    70   35   97 1    
    71   36   98 1    
    72   36   99 1    
    73   36  100 1    
    74   37   38 am   BACKBONE|DICT|INTERRES
    75   37  101 1    
    76   38   39 2    
    77   38   40 1    
    78   40   41 1    
    79   40   42 1    
    80   40  102 1    
    81   41  103 1    
    82   41  104 1    
    83   41  105 1    
    84   42   43 am   BACKBONE|DICT|INTERRES
    85   42  106 1    
    86   43   44 2    
    87   43   45 1    
    88   45   46 1    
    89   45   49 1    
    90   45  107 1    
    91   46   47 1    
    92   46  108 1    
    93   46  109 1    
    94   47   48 1    
    95   48  110 1    
    96   48  111 1    
    97   49   50 am   BACKBONE|DICT|INTERRES
    98   49  112 1    
    99   50   51 2    
   100   50   52 1    
   101   52   53 1    
   102   52   54 1    
   103   52  113 1    
   104   53  114 1    
   105   53  115 1    
   106   53  116 1    
   107   54   55 am   BACKBONE|DICT|INTERRES
   108   54  117 1    
   109   55   56 2    
   110   55   57 1    
   111   57   58 1    
   112   57   59 1    
   113   57  118 1    
   114   58  119 1    
   115   58  120 1    
   116   58  121 1    
   117   59   60 am   BACKBONE|DICT|INTERRES
   118   59  122 1    
   119   60   61 2    
   120   60   62 1    
   121   62   63 1    
   122   62   64 1    
   123   62  123 1    
   124   63  124 1    
   125   63  125 1    
   126   63  126 1    
   127   64   65 am   BACKBONE|DICT|INTERRES
   128   64  127 1    
   129   65   66 2    
@<TRIPOS>SUBSTRUCTURE
     1 UNK         1 GROUP             0       ****    0 ROOT    
