@<TRIPOS>MOLECULE
3R134
127   129    1
SMALL
USER_CHARGES


@<TRIPOS>ATOM
      1 CA         35.0822  -43.1706  -60.5147 C.3       0 UNK        -0.1968 
      2 C          34.3476  -44.1127  -59.5717 C.2       0 UNK         0.4852 
      3 O          33.8328  -45.1403  -60.0156 O.2       0 UNK        -0.5359 
      4 N          34.2905  -43.7657  -58.2790 N.am      1 UNK        -0.4300 
      5 CA         33.6856  -44.5777  -57.2187 C.3       1 UNK         0.0863 
      6 C6         33.3651  -43.7132  -55.9723 C.3       11 UNK        -0.0953 
      7 S7         32.0129  -44.4234  -54.9820 S.3       11 UNK        -0.2369 
      8 C8         32.2355  -43.5431  -53.4105 C.3       11 UNK         0.0226 
      9 C9         31.1230  -43.9214  -52.4502 C.ar      11 UNK        -0.0699 
     10 C10        31.3020  -44.9601  -51.5332 C.ar      11 UNK        -0.0804 
     11 C11        30.2500  -45.3560  -50.7029 C.ar      11 UNK        -0.0871 
     12 C12        29.0156  -44.7062  -50.7970 C.ar      11 UNK        -0.1008 
     13 C13        28.8206  -43.6703  -51.7147 C.ar      11 UNK        -0.0735 
     14 C14        29.8922  -43.2640  -52.5188 C.ar      11 UNK        -0.0945 
     15 C15        27.4389  -43.0266  -51.8252 C.3       11 UNK         0.0169 
     16 S16        26.9651  -42.4969  -53.5091 S.3       11 UNK        -0.2669 
     17 C17        27.2186  -44.0174  -54.4931 C.3       11 UNK        -0.0850 
     18 CA         27.3115  -43.7405  -56.0178 C.3       10 UNK         0.0855 
     19 C          28.6927  -43.1587  -56.4592 C.2       10 UNK         0.5543 
     20 N          29.4266  -43.7837  -57.3737 N.am      10 UNK        -0.7343 
     21 O          29.0966  -42.0977  -55.9915 O.2       10 UNK        -0.5027 
     22 N          26.8955  -44.9256  -56.7803 N.am      10 UNK        -0.4495 
     23 C          26.3809  -44.8858  -58.0168 C.2       10 UNK         0.4903 
     24 O          26.0896  -43.8408  -58.6011 O.2       10 UNK        -0.4860 
     25 CA         26.1574  -46.2398  -58.7181 C.3       9 UNK         0.0227 
     26 CB         26.0996  -46.1154  -60.2557 C.3       9 UNK        -0.1964 
     27 N          27.1224  -47.2702  -58.3157 N.am      9 UNK        -0.4231 
     28 C          28.4593  -47.2478  -58.4600 C.2       9 UNK         0.5014 
     29 O          29.0680  -46.3066  -58.9701 O.2       9 UNK        -0.5270 
     30 CA         29.2601  -48.4495  -57.9129 C.3       8 UNK         0.0284 
     31 CB         30.4921  -47.9708  -57.1154 C.3       8 UNK        -0.1977 
     32 N          28.4205  -49.3156  -57.0748 N.am      8 UNK        -0.4342 
     33 C          27.7144  -50.3664  -57.5246 C.2       8 UNK         0.5039 
     34 O          27.8544  -50.8420  -58.6511 O.2       8 UNK        -0.5547 
     35 CA         26.6156  -50.9462  -56.6091 C.3       7 UNK         0.0281 
     36 CB         26.8959  -52.3997  -56.1905 C.3       7 UNK        -0.1963 
     37 N          26.3628  -50.1296  -55.4191 N.am      7 UNK        -0.4444 
     38 C          25.6025  -49.0250  -55.4101 C.2       7 UNK         0.5104 
     39 O          24.9992  -48.6070  -56.3977 O.2       7 UNK        -0.5100 
     40 CA         25.5712  -48.2082  -54.1050 C.3       6 UNK         0.0396 
     41 CB         24.4490  -48.7061  -53.1822 C.3       6 UNK        -0.1801 
     42 N          26.8480  -48.2338  -53.3842 N.am      6 UNK        -0.4747 
     43 C          28.0042  -47.7633  -53.8744 C.2       6 UNK         0.5012 
     44 O          28.0831  -47.2002  -54.9673 O.2       6 UNK        -0.5003 
     45 CA         29.2856  -47.9988  -53.0486 C.3       5 UNK         0.0782 
     46 C46        29.0193  -48.1828  -51.5266 C.3       11 UNK        -0.0868 
     47 S47        30.5699  -48.1136  -50.5648 S.3       11 UNK        -0.2515 
     48 C48        30.4358  -46.5042  -49.7216 C.3       11 UNK         0.0199 
     49 N          30.0936  -49.0930  -53.6090 N.am      5 UNK        -0.4607 
     50 C          29.7253  -50.3782  -53.7544 C.2       4 UNK         0.5031 
     51 O          28.5718  -50.7770  -53.5901 O.2       4 UNK        -0.5119 
     52 CA         30.8169  -51.4116  -54.1122 C.3       4 UNK         0.0263 
     53 CB         30.7542  -51.8246  -55.5918 C.3       4 UNK        -0.1967 
     54 N          32.1689  -50.9420  -53.8156 N.am      4 UNK        -0.4237 
     55 C          32.6777  -50.7713  -52.5880 C.2       3 UNK         0.4908 
     56 O          32.1303  -51.1817  -51.5642 O.2       3 UNK        -0.5102 
     57 CA         34.0127  -50.0035  -52.4720 C.3       3 UNK         0.0241 
     58 CB         35.1120  -50.9112  -51.8931 C.3       3 UNK        -0.1971 
     59 N          34.5071  -49.3982  -53.7187 N.am      3 UNK        -0.4139 
     60 C          33.8881  -48.4531  -54.4400 C.2       2 UNK         0.5016 
     61 O          32.7732  -47.9978  -54.1678 O.2       2 UNK        -0.5319 
     62 CA         34.6068  -47.9996  -55.7155 C.3       2 UNK         0.0286 
     63 CB         34.5413  -49.0837  -56.8076 C.3       2 UNK        -0.1963 
     64 N          33.9669  -46.7844  -56.2041 N.am      2 UNK        -0.4790 
     65 C          34.5719  -45.7928  -56.8629 C.2       1 UNK         0.5024 
     66 O          35.7705  -45.8025  -57.1582 O.2       1 UNK        -0.4888 
     67 H67        35.4735  -42.2958  -59.9955 H         1 UNK         0.0892 
     68 H68        35.9184  -43.6877  -60.9846 H         1 UNK         0.0892 
     69 H69        34.4098  -42.8256  -61.2997 H         1 UNK         0.0892 
     70 H70        34.7634  -42.9280  -57.9719 H         1 UNK         0.3107 
     71 H71        32.7457  -44.9660  -57.6195 H         1 UNK         0.0773 
     72 H72        33.0358  -42.7178  -56.2756 H         1 UNK         0.0680 
     73 H73        34.2499  -43.5639  -55.3499 H         1 UNK         0.0680 
     74 H74        32.2288  -42.4668  -53.5893 H         1 UNK         0.0650 
     75 H75        33.2105  -43.7891  -52.9869 H         1 UNK         0.0650 
     76 H76        32.2486  -45.4815  -51.4863 H         1 UNK         0.1397 
     77 H77        28.1960  -45.0214  -50.1653 H         1 UNK         0.1363 
     78 H78        29.7585  -42.4681  -53.2389 H         1 UNK         0.1355 
     79 H79        27.4058  -42.1592  -51.1650 H         1 UNK         0.0707 
     80 H80        26.6743  -43.7176  -51.4663 H         1 UNK         0.0707 
     81 H81        28.1027  -44.5603  -54.1576 H         1 UNK         0.1034 
     82 H82        26.3729  -44.6728  -54.2789 H         1 UNK         0.1034 
     83 H83        26.5844  -42.9574  -56.2416 H         1 UNK         0.0482 
     84 H84        30.3092  -43.3807  -57.6396 H         1 UNK         0.3460 
     85 H85        29.1172  -44.6451  -57.8088 H         1 UNK         0.3460 
     86 H86        27.1507  -45.8201  -56.3787 H         1 UNK         0.2989 
     87 H87        25.1820  -46.5932  -58.3812 H         1 UNK         0.0559 
     88 H88        25.2861  -45.4586  -60.5660 H         1 UNK         0.0848 
     89 H89        25.9283  -47.0834  -60.7265 H         1 UNK         0.0848 
     90 H90        27.0229  -45.7024  -60.6633 H         1 UNK         0.0848 
     91 H91        26.7125  -48.0669  -57.8463 H         1 UNK         0.3144 
     92 H92        29.6218  -49.0146  -58.7741 H         1 UNK         0.0727 
     93 H93        30.2276  -47.2682  -56.3257 H         1 UNK         0.0790 
     94 H94        31.1984  -47.4573  -57.7692 H         1 UNK         0.0790 
     95 H95        31.0305  -48.7961  -56.6562 H         1 UNK         0.0790 
     96 H96        28.2217  -48.9546  -56.1492 H         1 UNK         0.3215 
     97 H97        25.7068  -50.9635  -57.2153 H         1 UNK         0.0863 
     98 H98        25.9866  -52.8771  -55.8251 H         1 UNK         0.0808 
     99 H99        27.6344  -52.4666  -55.3946 H         1 UNK         0.0808 
    100 H100       27.2550  -52.9966  -57.0301 H         1 UNK         0.0808 
    101 H101       26.8863  -50.3745  -54.5821 H         1 UNK         0.3118 
    102 H102       25.3595  -47.1702  -54.3703 H         1 UNK         0.0546 
    103 H103       24.6149  -49.7350  -52.8605 H         1 UNK         0.0828 
    104 H104       23.4843  -48.6755  -53.6908 H         1 UNK         0.0828 
    105 H105       24.3624  -48.0844  -52.2909 H         1 UNK         0.0828 
    106 H106       26.8620  -48.7250  -52.5018 H         1 UNK         0.3005 
    107 H107       29.8782  -47.0900  -53.1752 H         1 UNK         0.1257 
    108 H108       28.3323  -47.4233  -51.1510 H         1 UNK         0.0775 
    109 H109       28.5450  -49.1444  -51.3240 H         1 UNK         0.0775 
    110 H110       29.6123  -46.5437  -49.0068 H         1 UNK         0.0840 
    111 H111       31.3399  -46.3355  -49.1349 H         1 UNK         0.0840 
    112 H112       31.0607  -48.8409  -53.7966 H         1 UNK         0.2987 
    113 H113       30.6276  -52.2997  -53.5055 H         1 UNK         0.0785 
    114 H114       29.7859  -52.2491  -55.8452 H         1 UNK         0.0798 
    115 H115       31.4998  -52.5868  -55.8192 H         1 UNK         0.0798 
    116 H116       30.9245  -50.9850  -56.2627 H         1 UNK         0.0798 
    117 H117       32.7006  -50.5805  -54.5926 H         1 UNK         0.3079 
    118 H118       33.8364  -49.1888  -51.7663 H         1 UNK         0.0794 
    119 H119       36.0315  -50.3551  -51.7087 H         1 UNK         0.0786 
    120 H120       35.3463  -51.7383  -52.5645 H         1 UNK         0.0786 
    121 H121       34.8039  -51.3431  -50.9398 H         1 UNK         0.0786 
    122 H122       35.4072  -49.7279  -54.0379 H         1 UNK         0.3032 
    123 H123       35.6486  -47.7901  -55.4611 H         1 UNK         0.1094 
    124 H124       33.5120  -49.3266  -57.0743 H         1 UNK         0.0794 
    125 H125       35.0505  -48.7596  -57.7155 H         1 UNK         0.0794 
    126 H126       35.0236  -50.0066  -56.4836 H         1 UNK         0.0794 
    127 H127       33.0145  -46.6585  -55.8783 H         1 UNK         0.3016 
@<TRIPOS>BOND
     1    1    2 1    
     2    1   67 1    
     3    1   68 1    
     4    1   69 1    
     5    2    3 2    
     6    2    4 am   BACKBONE|DICT|INTERRES
     7    4    5 1    
     8    4   70 1    
     9    5    6 1    
    10    5   65 1    
    11    5   71 1    
    12    6    7 1    
    13    6   72 1    
    14    6   73 1    
    15    7    8 1    
    16    8    9 1    
    17    8   74 1    
    18    8   75 1    
    19    9   10 ar   
    20    9   14 ar   
    21   10   11 ar   
    22   10   76 1    
    23   11   12 ar   
    24   11   48 1    
    25   12   13 ar   
    26   12   77 1    
    27   13   14 ar   
    28   13   15 1    
    29   14   78 1    
    30   15   16 1    
    31   15   79 1    
    32   15   80 1    
    33   16   17 1    
    34   17   18 1    
    35   17   81 1    
    36   17   82 1    
    37   18   19 1    
    38   18   22 1    
    39   18   83 1    
    40   19   20 am   BACKBONE|DICT|INTERRES
    41   19   21 2    
    42   20   84 1    
    43   20   85 1    
    44   22   23 am   BACKBONE|DICT|INTERRES
    45   22   86 1    
    46   23   24 2    
    47   23   25 1    
    48   25   26 1    
    49   25   27 1    
    50   25   87 1    
    51   26   88 1    
    52   26   89 1    
    53   26   90 1    
    54   27   28 am   BACKBONE|DICT|INTERRES
    55   27   91 1    
    56   28   29 2    
    57   28   30 1    
    58   30   31 1    
    59   30   32 1    
    60   30   92 1    
    61   31   93 1    
    62   31   94 1    
    63   31   95 1    
    64   32   33 am   BACKBONE|DICT|INTERRES
    65   32   96 1    
    66   33   34 2    
    67   33   35 1    
    68   35   36 1    
    69   35   37 1    
    70   35   97 1    
    71   36   98 1    
    72   36   99 1    
    73   36  100 1    
    74   37   38 am   BACKBONE|DICT|INTERRES
    75   37  101 1    
    76   38   39 2    
    77   38   40 1    
    78   40   41 1    
    79   40   42 1    
    80   40  102 1    
    81   41  103 1    
    82   41  104 1    
    83   41  105 1    
    84   42   43 am   BACKBONE|DICT|INTERRES
    85   42  106 1    
    86   43   44 2    
    87   43   45 1    
    88   45   46 1    
    89   45   49 1    
    90   45  107 1    
    91   46   47 1    
    92   46  108 1    
    93   46  109 1    
    94   47   48 1    
    95   48  110 1    
    96   48  111 1    
    97   49   50 am   BACKBONE|DICT|INTERRES
    98   49  112 1    
    99   50   51 2    
   100   50   52 1    
   101   52   53 1    
   102   52   54 1    
   103   52  113 1    
   104   53  114 1    
   105   53  115 1    
   106   53  116 1    
   107   54   55 am   BACKBONE|DICT|INTERRES
   108   54  117 1    
   109   55   56 2    
   110   55   57 1    
   111   57   58 1    
   112   57   59 1    
   113   57  118 1    
   114   58  119 1    
   115   58  120 1    
   116   58  121 1    
   117   59   60 am   BACKBONE|DICT|INTERRES
   118   59  122 1    
   119   60   61 2    
   120   60   62 1    
   121   62   63 1    
   122   62   64 1    
   123   62  123 1    
   124   63  124 1    
   125   63  125 1    
   126   63  126 1    
   127   64   65 am   BACKBONE|DICT|INTERRES
   128   64  127 1    
   129   65   66 2    
@<TRIPOS>SUBSTRUCTURE
     1 UNK         1 GROUP             0       ****    0 ROOT    
