@<TRIPOS>MOLECULE
3R134
127   129    1
SMALL
USER_CHARGES


@<TRIPOS>ATOM
      1 CA         38.4203  -47.3639  -55.9472 C.3       0 UNK        -0.1968 
      2 C          36.9531  -46.9602  -55.9572 C.2       0 UNK         0.4852 
      3 O          36.1457  -47.6143  -56.6177 O.2       0 UNK        -0.5359 
      4 N          36.6067  -45.8862  -55.2339 N.am      1 UNK        -0.4300 
      5 CA         35.2359  -45.3732  -55.1004 C.3       1 UNK         0.0863 
      6 C6         35.2360  -43.8583  -54.7541 C.3       11 UNK        -0.0953 
      7 S7         33.9848  -42.9245  -55.6981 S.3       11 UNK        -0.2369 
      8 C8         33.3579  -41.7567  -54.4513 C.3       11 UNK         0.0226 
      9 C9         32.0633  -42.2457  -53.8202 C.ar      11 UNK        -0.0699 
     10 C10        32.0887  -43.1221  -52.7314 C.ar      11 UNK        -0.0804 
     11 C11        30.8962  -43.5531  -52.1411 C.ar      11 UNK        -0.0871 
     12 C12        29.6750  -43.0909  -52.6367 C.ar      11 UNK        -0.1008 
     13 C13        29.6368  -42.2353  -53.7402 C.ar      11 UNK        -0.0735 
     14 C14        30.8337  -41.8110  -54.3245 C.ar      11 UNK        -0.0945 
     15 C15        28.2993  -41.7880  -54.3104 C.3       11 UNK         0.0169 
     16 S16        27.3912  -43.1811  -55.0518 S.3       11 UNK        -0.2669 
     17 C17        28.5433  -43.7168  -56.3652 C.3       11 UNK        -0.0850 
     18 CA         27.7948  -44.1850  -57.6396 C.3       10 UNK         0.0855 
     19 C          28.7536  -44.3892  -58.8496 C.2       10 UNK         0.5543 
     20 N          28.5561  -45.3894  -59.7000 N.am      10 UNK        -0.7343 
     21 O          29.6861  -43.6125  -59.0403 O.2       10 UNK        -0.5027 
     22 N          26.9614  -45.3672  -57.3666 N.am      10 UNK        -0.4495 
     23 C          25.6542  -45.4699  -57.6346 C.2       10 UNK         0.4903 
     24 O          24.9687  -44.5450  -58.0755 O.2       10 UNK        -0.4860 
     25 CA         25.0099  -46.8532  -57.3934 C.3       9 UNK         0.0227 
     26 CB         23.6342  -46.9982  -58.0767 C.3       9 UNK        -0.1964 
     27 N          25.8763  -47.9804  -57.7639 N.am      9 UNK        -0.4231 
     28 C          26.5066  -48.1803  -58.9339 C.2       9 UNK         0.5014 
     29 O          26.4065  -47.4253  -59.9019 O.2       9 UNK        -0.5270 
     30 CA         27.4427  -49.3965  -59.0412 C.3       8 UNK         0.0284 
     31 CB         28.8439  -48.9719  -59.5158 C.3       8 UNK        -0.1977 
     32 N          27.5716  -50.0952  -57.7606 N.am      8 UNK        -0.4342 
     33 C          27.1978  -51.3610  -57.5383 C.2       8 UNK         0.5039 
     34 O          26.7465  -52.1102  -58.4056 O.2       8 UNK        -0.5547 
     35 CA         27.3391  -51.8851  -56.1001 C.3       7 UNK         0.0281 
     36 CB         28.6944  -52.5882  -55.9181 C.3       7 UNK        -0.1963 
     37 N          27.1746  -50.8557  -55.0665 N.am      7 UNK        -0.4444 
     38 C          26.0228  -50.2149  -54.8105 C.2       7 UNK         0.5104 
     39 O          25.0089  -50.3405  -55.4961 O.2       7 UNK        -0.5100 
     40 CA         25.9868  -49.2631  -53.6078 C.3       6 UNK         0.0396 
     41 CB         25.7676  -50.0512  -52.3066 C.3       6 UNK        -0.1801 
     42 N          27.2203  -48.4875  -53.5015 N.am      6 UNK        -0.4747 
     43 C          27.2995  -47.1486  -53.5394 C.2       6 UNK         0.5012 
     44 O          26.3288  -46.4001  -53.6491 O.2       6 UNK        -0.5003 
     45 CA         28.7209  -46.5542  -53.4267 C.3       5 UNK         0.0782 
     46 C46        29.1153  -46.5186  -51.9195 C.3       11 UNK        -0.0868 
     47 S47        30.8888  -46.2501  -51.5680 S.3       11 UNK        -0.2515 
     48 C48        30.9279  -44.5298  -50.9784 C.3       11 UNK         0.0199 
     49 N          29.7078  -47.2807  -54.2330 N.am      5 UNK        -0.4607 
     50 C          29.5957  -47.7507  -55.4844 C.2       4 UNK         0.5031 
     51 O          28.6587  -47.5026  -56.2451 O.2       4 UNK        -0.5119 
     52 CA         30.6728  -48.7577  -55.9319 C.3       4 UNK         0.0263 
     53 CB         31.7057  -48.0740  -56.8407 C.3       4 UNK        -0.1967 
     54 N          31.3664  -49.4267  -54.8216 N.am      4 UNK        -0.4237 
     55 C          30.8051  -50.1182  -53.8172 C.2       3 UNK         0.4908 
     56 O          29.5949  -50.3401  -53.7353 O.2       3 UNK        -0.5102 
     57 CA         31.7229  -50.5617  -52.6640 C.3       3 UNK         0.0241 
     58 CB         32.4213  -51.8971  -52.9858 C.3       3 UNK        -0.1971 
     59 N          32.6721  -49.5223  -52.2255 N.am      3 UNK        -0.4139 
     60 C          33.7173  -49.0127  -52.8936 C.2       2 UNK         0.5016 
     61 O          34.0904  -49.4190  -53.9970 O.2       2 UNK        -0.5319 
     62 CA         34.4577  -47.8435  -52.2196 C.3       2 UNK         0.0286 
     63 CB         35.5528  -48.3721  -51.2793 C.3       2 UNK        -0.1963 
     64 N          35.0678  -46.9377  -53.1975 N.am      2 UNK        -0.4790 
     65 C          34.3974  -46.1935  -54.0926 C.2       1 UNK         0.5024 
     66 O          33.1696  -46.1377  -54.1423 O.2       1 UNK        -0.4888 
     67 H67        38.8211  -47.3455  -56.9603 H         1 UNK         0.0892 
     68 H68        39.0244  -46.6971  -55.3322 H         1 UNK         0.0892 
     69 H69        38.5278  -48.3756  -55.5567 H         1 UNK         0.0892 
     70 H70        37.3184  -45.3809  -54.7247 H         1 UNK         0.3107 
     71 H71        34.7543  -45.5051  -56.0722 H         1 UNK         0.0773 
     72 H72        35.1161  -43.6892  -53.6823 H         1 UNK         0.0680 
     73 H73        36.1956  -43.4056  -55.0091 H         1 UNK         0.0680 
     74 H74        34.1109  -41.5732  -53.6836 H         1 UNK         0.0650 
     75 H75        33.1905  -40.7945  -54.9375 H         1 UNK         0.0650 
     76 H76        33.0355  -43.4794  -52.3512 H         1 UNK         0.1397 
     77 H77        28.7490  -43.4209  -52.1863 H         1 UNK         0.1363 
     78 H78        30.8101  -41.1457  -55.1768 H         1 UNK         0.1355 
     79 H79        27.6945  -41.3537  -53.5131 H         1 UNK         0.0707 
     80 H80        28.4320  -41.0048  -55.0585 H         1 UNK         0.0707 
     81 H81        29.2049  -42.8815  -56.6010 H         1 UNK         0.1034 
     82 H82        29.1855  -44.5105  -55.9800 H         1 UNK         0.1034 
     83 H83        27.1554  -43.3561  -57.9474 H         1 UNK         0.0482 
     84 H84        27.7566  -46.0068  -59.6099 H         1 UNK         0.3460 
     85 H85        29.1821  -45.4940  -60.4817 H         1 UNK         0.3460 
     86 H86        27.4601  -46.1809  -57.0165 H         1 UNK         0.2989 
     87 H87        24.8561  -46.9299  -56.3158 H         1 UNK         0.0559 
     88 H88        22.9382  -46.2353  -57.7257 H         1 UNK         0.0848 
     89 H89        23.1846  -47.9674  -57.8610 H         1 UNK         0.0848 
     90 H90        23.7110  -46.8970  -59.1599 H         1 UNK         0.0848 
     91 H91        25.9996  -48.6802  -57.0467 H         1 UNK         0.3144 
     92 H92        27.0120  -50.0547  -59.7983 H         1 UNK         0.0727 
     93 H93        29.2812  -48.2240  -58.8550 H         1 UNK         0.0790 
     94 H94        28.8040  -48.5371  -60.5153 H         1 UNK         0.0790 
     95 H95        29.5246  -49.8221  -59.5610 H         1 UNK         0.0790 
     96 H96        27.9332  -49.5479  -56.9899 H         1 UNK         0.3215 
     97 H97        26.5522  -52.6275  -55.9486 H         1 UNK         0.0863 
     98 H98        28.7932  -53.0102  -54.9178 H         1 UNK         0.0808 
     99 H99        29.5302  -51.9069  -56.0784 H         1 UNK         0.0808 
    100 H100       28.8051  -53.4092  -56.6278 H         1 UNK         0.0808 
    101 H101       27.9835  -50.6934  -54.4691 H         1 UNK         0.3118 
    102 H102       25.1308  -48.5997  -53.7478 H         1 UNK         0.0546 
    103 H103       26.5935  -50.7335  -52.1008 H         1 UNK         0.0828 
    104 H104       24.8555  -50.6473  -52.3592 H         1 UNK         0.0828 
    105 H105       25.6671  -49.3814  -51.4525 H         1 UNK         0.0828 
    106 H106       28.0855  -49.0143  -53.4356 H         1 UNK         0.3005 
    107 H107       28.6891  -45.5342  -53.8091 H         1 UNK         0.1257 
    108 H108       28.5211  -45.7678  -51.3961 H         1 UNK         0.0775 
    109 H109       28.8708  -47.4675  -51.4368 H         1 UNK         0.0775 
    110 H110       30.1001  -44.3452  -50.2921 H         1 UNK         0.0840 
    111 H111       31.8393  -44.3810  -50.3973 H         1 UNK         0.0840 
    112 H112       30.5608  -47.4996  -53.7381 H         1 UNK         0.2987 
    113 H113       30.1705  -49.5328  -56.5119 H         1 UNK         0.0785 
    114 H114       31.2241  -47.5667  -57.6772 H         1 UNK         0.0798 
    115 H115       32.4062  -48.7967  -57.2595 H         1 UNK         0.0798 
    116 H116       32.2835  -47.3241  -56.3013 H         1 UNK         0.0798 
    117 H117       32.3767  -49.3086  -54.7776 H         1 UNK         0.3079 
    118 H118       31.0718  -50.7386  -51.8063 H         1 UNK         0.0794 
    119 H119       33.0320  -52.2362  -52.1492 H         1 UNK         0.0786 
    120 H120       33.0642  -51.8265  -53.8635 H         1 UNK         0.0786 
    121 H121       31.6867  -52.6778  -53.1886 H         1 UNK         0.0786 
    122 H122       32.4468  -49.1037  -51.3329 H         1 UNK         0.3032 
    123 H123       33.7388  -47.2646  -51.6360 H         1 UNK         0.1094 
    124 H124       36.3050  -48.9479  -51.8205 H         1 UNK         0.0794 
    125 H125       36.0602  -47.5576  -50.7619 H         1 UNK         0.0794 
    126 H126       35.1316  -49.0257  -50.5142 H         1 UNK         0.0794 
    127 H127       36.0745  -46.9531  -53.2581 H         1 UNK         0.3016 
@<TRIPOS>BOND
     1    1    2 1    
     2    1   67 1    
     3    1   68 1    
     4    1   69 1    
     5    2    3 2    
     6    2    4 am   BACKBONE|DICT|INTERRES
     7    4    5 1    
     8    4   70 1    
     9    5    6 1    
    10    5   65 1    
    11    5   71 1    
    12    6    7 1    
    13    6   72 1    
    14    6   73 1    
    15    7    8 1    
    16    8    9 1    
    17    8   74 1    
    18    8   75 1    
    19    9   10 ar   
    20    9   14 ar   
    21   10   11 ar   
    22   10   76 1    
    23   11   12 ar   
    24   11   48 1    
    25   12   13 ar   
    26   12   77 1    
    27   13   14 ar   
    28   13   15 1    
    29   14   78 1    
    30   15   16 1    
    31   15   79 1    
    32   15   80 1    
    33   16   17 1    
    34   17   18 1    
    35   17   81 1    
    36   17   82 1    
    37   18   19 1    
    38   18   22 1    
    39   18   83 1    
    40   19   20 am   BACKBONE|DICT|INTERRES
    41   19   21 2    
    42   20   84 1    
    43   20   85 1    
    44   22   23 am   BACKBONE|DICT|INTERRES
    45   22   86 1    
    46   23   24 2    
    47   23   25 1    
    48   25   26 1    
    49   25   27 1    
    50   25   87 1    
    51   26   88 1    
    52   26   89 1    
    53   26   90 1    
    54   27   28 am   BACKBONE|DICT|INTERRES
    55   27   91 1    
    56   28   29 2    
    57   28   30 1    
    58   30   31 1    
    59   30   32 1    
    60   30   92 1    
    61   31   93 1    
    62   31   94 1    
    63   31   95 1    
    64   32   33 am   BACKBONE|DICT|INTERRES
    65   32   96 1    
    66   33   34 2    
    67   33   35 1    
    68   35   36 1    
    69   35   37 1    
    70   35   97 1    
    71   36   98 1    
    72   36   99 1    
    73   36  100 1    
    74   37   38 am   BACKBONE|DICT|INTERRES
    75   37  101 1    
    76   38   39 2    
    77   38   40 1    
    78   40   41 1    
    79   40   42 1    
    80   40  102 1    
    81   41  103 1    
    82   41  104 1    
    83   41  105 1    
    84   42   43 am   BACKBONE|DICT|INTERRES
    85   42  106 1    
    86   43   44 2    
    87   43   45 1    
    88   45   46 1    
    89   45   49 1    
    90   45  107 1    
    91   46   47 1    
    92   46  108 1    
    93   46  109 1    
    94   47   48 1    
    95   48  110 1    
    96   48  111 1    
    97   49   50 am   BACKBONE|DICT|INTERRES
    98   49  112 1    
    99   50   51 2    
   100   50   52 1    
   101   52   53 1    
   102   52   54 1    
   103   52  113 1    
   104   53  114 1    
   105   53  115 1    
   106   53  116 1    
   107   54   55 am   BACKBONE|DICT|INTERRES
   108   54  117 1    
   109   55   56 2    
   110   55   57 1    
   111   57   58 1    
   112   57   59 1    
   113   57  118 1    
   114   58  119 1    
   115   58  120 1    
   116   58  121 1    
   117   59   60 am   BACKBONE|DICT|INTERRES
   118   59  122 1    
   119   60   61 2    
   120   60   62 1    
   121   62   63 1    
   122   62   64 1    
   123   62  123 1    
   124   63  124 1    
   125   63  125 1    
   126   63  126 1    
   127   64   65 am   BACKBONE|DICT|INTERRES
   128   64  127 1    
   129   65   66 2    
@<TRIPOS>SUBSTRUCTURE
     1 UNK         1 GROUP             0       ****    0 ROOT    
