@<TRIPOS>MOLECULE
3R134
127   129    1
SMALL
USER_CHARGES


@<TRIPOS>ATOM
      1 CA         30.4606  -47.6294  -48.6462 C.3       0 UNK        -0.1968 
      2 C          31.5674  -47.3273  -49.6449 C.2       0 UNK         0.4852 
      3 O          31.6724  -48.0186  -50.6591 O.2       0 UNK        -0.5359 
      4 N          32.3892  -46.3053  -49.3605 N.am      1 UNK        -0.4300 
      5 CA         33.5094  -45.8168  -50.1785 C.3       1 UNK         0.0863 
      6 C6         33.0563  -45.1434  -51.5068 C.3       11 UNK        -0.0953 
      7 S7         31.8739  -43.7814  -51.2205 S.3       11 UNK        -0.2369 
      8 C8         32.3376  -42.5763  -52.5035 C.3       11 UNK         0.0226 
      9 C9         31.8253  -42.9730  -53.8819 C.ar      11 UNK        -0.0699 
     10 C10        32.7060  -43.4689  -54.8491 C.ar      11 UNK        -0.0804 
     11 C11        32.2434  -43.7887  -56.1294 C.ar      11 UNK        -0.0871 
     12 C12        30.8919  -43.6198  -56.4292 C.ar      11 UNK        -0.1008 
     13 C13        29.9915  -43.1515  -55.4711 C.ar      11 UNK        -0.0735 
     14 C14        30.4699  -42.8190  -54.1986 C.ar      11 UNK        -0.0945 
     15 C15        28.5009  -43.0601  -55.7862 C.3       11 UNK         0.0169 
     16 S16        28.1034  -41.9633  -57.1896 S.3       11 UNK        -0.2669 
     17 C17        28.0493  -43.1028  -58.6238 C.3       11 UNK        -0.0850 
     18 CA         26.6401  -43.6957  -58.8759 C.3       10 UNK         0.0855 
     19 C          26.5636  -44.3695  -60.2691 C.2       10 UNK         0.5543 
     20 N          25.9106  -43.7347  -61.2323 N.am      10 UNK        -0.7343 
     21 O          27.1270  -45.4387  -60.4947 O.2       10 UNK        -0.5027 
     22 N          26.2938  -44.6727  -57.8397 N.am      10 UNK        -0.4495 
     23 C          25.0758  -44.8338  -57.3142 C.2       10 UNK         0.4903 
     24 O          24.0988  -44.1451  -57.6146 O.2       10 UNK        -0.4860 
     25 CA         24.9432  -45.9530  -56.2656 C.3       9 UNK         0.0227 
     26 CB         23.4938  -46.1674  -55.7796 C.3       9 UNK        -0.1964 
     27 N          25.5402  -47.2154  -56.7129 N.am      9 UNK        -0.4231 
     28 C          25.1829  -47.9716  -57.7634 C.2       9 UNK         0.5014 
     29 O          24.2540  -47.6990  -58.5249 O.2       9 UNK        -0.5270 
     30 CA         25.9960  -49.2582  -58.0191 C.3       8 UNK         0.0284 
     31 CB         26.8646  -49.0966  -59.2779 C.3       8 UNK        -0.1977 
     32 N          26.8587  -49.6463  -56.8995 N.am      8 UNK        -0.4342 
     33 C          26.4416  -50.1170  -55.7157 C.2       8 UNK         0.5039 
     34 O          25.2695  -50.3924  -55.4600 O.2       8 UNK        -0.5547 
     35 CA         27.5087  -50.2342  -54.6132 C.3       7 UNK         0.0281 
     36 CB         28.2387  -51.5855  -54.6797 C.3       7 UNK        -0.1963 
     37 N          28.4762  -49.1330  -54.6804 N.am      7 UNK        -0.4444 
     38 C          28.2001  -47.8698  -54.3242 C.2       7 UNK         0.5104 
     39 O          27.1258  -47.5196  -53.8380 O.2       7 UNK        -0.5100 
     40 CA         29.2720  -46.8059  -54.5976 C.3       6 UNK         0.0396 
     41 CB         30.1559  -46.5854  -53.3684 C.3       6 UNK        -0.1801 
     42 N          30.1106  -47.1294  -55.7519 N.am      6 UNK        -0.4747 
     43 C          29.7483  -46.9232  -57.0259 C.2       6 UNK         0.5012 
     44 O          28.6776  -46.4050  -57.3500 O.2       6 UNK        -0.5003 
     45 CA         30.7135  -47.4284  -58.1233 C.3       5 UNK         0.0782 
     46 C46        31.7354  -46.3473  -58.5652 C.3       11 UNK        -0.0868 
     47 S47        33.1265  -46.1021  -57.3929 S.3       11 UNK        -0.2515 
     48 C48        33.1999  -44.2927  -57.2006 C.3       11 UNK         0.0199 
     49 N          31.3978  -48.6738  -57.7659 N.am      5 UNK        -0.4607 
     50 C          30.8238  -49.8314  -57.4256 C.2       4 UNK         0.5031 
     51 O          29.6080  -50.0155  -57.4306 O.2       4 UNK        -0.5119 
     52 CA         31.7571  -50.9559  -56.9400 C.3       4 UNK         0.0263 
     53 CB         33.1948  -50.8441  -57.4959 C.3       4 UNK        -0.1967 
     54 N          31.7904  -51.0659  -55.4743 N.am      4 UNK        -0.4237 
     55 C          32.0704  -50.0965  -54.5877 C.2       3 UNK         0.4908 
     56 O          32.2576  -48.9173  -54.8952 O.2       3 UNK        -0.5102 
     57 CA         32.1246  -50.4868  -53.0966 C.3       3 UNK         0.0241 
     58 CB         32.2499  -52.0055  -52.8349 C.3       3 UNK        -0.1971 
     59 N          33.1720  -49.7370  -52.3917 N.am      3 UNK        -0.4139 
     60 C          34.4937  -49.7615  -52.6404 C.2       2 UNK         0.5016 
     61 O          35.0266  -50.5389  -53.4348 O.2       2 UNK        -0.5319 
     62 CA         35.3680  -48.7347  -51.8940 C.3       2 UNK         0.0286 
     63 CB         36.6161  -48.3226  -52.6982 C.3       2 UNK        -0.1963 
     64 N          34.5917  -47.5386  -51.5675 N.am      2 UNK        -0.4790 
     65 C          34.5513  -46.9413  -50.3707 C.2       1 UNK         0.5024 
     66 O          35.2653  -47.2656  -49.4199 O.2       1 UNK        -0.4888 
     67 H67        30.5687  -48.6438  -48.2637 H         1 UNK         0.0892 
     68 H68        30.4744  -46.9430  -47.8000 H         1 UNK         0.0892 
     69 H69        29.4887  -47.5498  -49.1321 H         1 UNK         0.0892 
     70 H70        32.2524  -45.8022  -48.4953 H         1 UNK         0.3107 
     71 H71        34.0070  -45.0507  -49.5816 H         1 UNK         0.0773 
     72 H72        32.5853  -45.8657  -52.1706 H         1 UNK         0.0680 
     73 H73        33.9234  -44.7522  -52.0417 H         1 UNK         0.0680 
     74 H74        33.4202  -42.4415  -52.5096 H         1 UNK         0.0650 
     75 H75        31.9154  -41.6069  -52.2351 H         1 UNK         0.0650 
     76 H76        33.7534  -43.5921  -54.6098 H         1 UNK         0.1397 
     77 H77        30.5426  -43.8654  -57.4147 H         1 UNK         0.1363 
     78 H78        29.7874  -42.4519  -53.4444 H         1 UNK         0.1355 
     79 H79        28.1152  -44.0584  -55.9812 H         1 UNK         0.0707 
     80 H80        27.9560  -42.6954  -54.9144 H         1 UNK         0.0707 
     81 H81        28.3761  -42.5263  -59.4915 H         1 UNK         0.1034 
     82 H82        28.7712  -43.9097  -58.5176 H         1 UNK         0.1034 
     83 H83        25.9242  -42.8712  -58.8535 H         1 UNK         0.0482 
     84 H84        25.4527  -42.8531  -61.0590 H         1 UNK         0.3460 
     85 H85        25.8644  -44.1512  -62.1492 H         1 UNK         0.3460 
     86 H86        27.0292  -45.3325  -57.6024 H         1 UNK         0.2989 
     87 H87        25.5307  -45.6314  -55.4043 H         1 UNK         0.0559 
     88 H88        22.8283  -46.4505  -56.5957 H         1 UNK         0.0848 
     89 H89        23.0925  -45.2555  -55.3360 H         1 UNK         0.0848 
     90 H90        23.4428  -46.9467  -55.0191 H         1 UNK         0.0848 
     91 H91        26.3233  -47.5384  -56.1626 H         1 UNK         0.3144 
     92 H92        25.2833  -50.0669  -58.1925 H         1 UNK         0.0727 
     93 H93        27.4208  -50.0078  -59.4992 H         1 UNK         0.0790 
     94 H94        27.5820  -48.2824  -59.1684 H         1 UNK         0.0790 
     95 H95        26.2504  -48.8703  -60.1506 H         1 UNK         0.0790 
     96 H96        27.8625  -49.5616  -57.0514 H         1 UNK         0.3215 
     97 H97        26.9955  -50.1783  -53.6504 H         1 UNK         0.0863 
     98 H98        28.9655  -51.6831  -53.8735 H         1 UNK         0.0808 
     99 H99        28.7615  -51.7253  -55.6255 H         1 UNK         0.0808 
    100 H100       27.5322  -52.4103  -54.5779 H         1 UNK         0.0808 
    101 H101       29.3548  -49.3176  -55.1425 H         1 UNK         0.3118 
    102 H102       28.7514  -45.8686  -54.7921 H         1 UNK         0.0546 
    103 H103       29.5606  -46.3462  -52.4863 H         1 UNK         0.0828 
    104 H104       30.8297  -45.7478  -53.5402 H         1 UNK         0.0828 
    105 H105       30.7557  -47.4641  -53.1328 H         1 UNK         0.0828 
    106 H106       31.0046  -47.5782  -55.5636 H         1 UNK         0.3005 
    107 H107       30.0835  -47.6572  -58.9857 H         1 UNK         0.1257 
    108 H108       31.2361  -45.4048  -58.7862 H         1 UNK         0.0775 
    109 H109       32.1784  -46.6533  -59.5143 H         1 UNK         0.0775 
    110 H110       34.2233  -44.0162  -56.9428 H         1 UNK         0.0840 
    111 H111       32.9915  -43.8064  -58.1548 H         1 UNK         0.0840 
    112 H112       32.3986  -48.5934  -57.6546 H         1 UNK         0.2987 
    113 H113       31.3297  -51.8868  -57.3158 H         1 UNK         0.0785 
    114 H114       33.1927  -50.7478  -58.5826 H         1 UNK         0.0798 
    115 H115       33.7734  -51.7364  -57.2563 H         1 UNK         0.0798 
    116 H116       33.7343  -49.9892  -57.0861 H         1 UNK         0.0798 
    117 H117       31.6272  -51.9939  -55.1100 H         1 UNK         0.3079 
    118 H118       31.1795  -50.1536  -52.6647 H         1 UNK         0.0794 
    119 H119       33.1251  -52.4359  -53.3232 H         1 UNK         0.0786 
    120 H120       31.3711  -52.5462  -53.1876 H         1 UNK         0.0786 
    121 H121       32.3359  -52.2105  -51.7676 H         1 UNK         0.0786 
    122 H122       32.8176  -49.0561  -51.7213 H         1 UNK         0.3032 
    123 H123       35.6964  -49.2310  -50.9779 H         1 UNK         0.1094 
    124 H124       37.2513  -49.1839  -52.9093 H         1 UNK         0.0794 
    125 H125       36.3459  -47.8718  -53.6538 H         1 UNK         0.0794 
    126 H126       37.2228  -47.6039  -52.1471 H         1 UNK         0.0794 
    127 H127       33.9470  -47.2275  -52.2816 H         1 UNK         0.3016 
@<TRIPOS>BOND
     1    1    2 1    
     2    1   67 1    
     3    1   68 1    
     4    1   69 1    
     5    2    3 2    
     6    2    4 am   BACKBONE|DICT|INTERRES
     7    4    5 1    
     8    4   70 1    
     9    5    6 1    
    10    5   65 1    
    11    5   71 1    
    12    6    7 1    
    13    6   72 1    
    14    6   73 1    
    15    7    8 1    
    16    8    9 1    
    17    8   74 1    
    18    8   75 1    
    19    9   10 ar   
    20    9   14 ar   
    21   10   11 ar   
    22   10   76 1    
    23   11   12 ar   
    24   11   48 1    
    25   12   13 ar   
    26   12   77 1    
    27   13   14 ar   
    28   13   15 1    
    29   14   78 1    
    30   15   16 1    
    31   15   79 1    
    32   15   80 1    
    33   16   17 1    
    34   17   18 1    
    35   17   81 1    
    36   17   82 1    
    37   18   19 1    
    38   18   22 1    
    39   18   83 1    
    40   19   20 am   BACKBONE|DICT|INTERRES
    41   19   21 2    
    42   20   84 1    
    43   20   85 1    
    44   22   23 am   BACKBONE|DICT|INTERRES
    45   22   86 1    
    46   23   24 2    
    47   23   25 1    
    48   25   26 1    
    49   25   27 1    
    50   25   87 1    
    51   26   88 1    
    52   26   89 1    
    53   26   90 1    
    54   27   28 am   BACKBONE|DICT|INTERRES
    55   27   91 1    
    56   28   29 2    
    57   28   30 1    
    58   30   31 1    
    59   30   32 1    
    60   30   92 1    
    61   31   93 1    
    62   31   94 1    
    63   31   95 1    
    64   32   33 am   BACKBONE|DICT|INTERRES
    65   32   96 1    
    66   33   34 2    
    67   33   35 1    
    68   35   36 1    
    69   35   37 1    
    70   35   97 1    
    71   36   98 1    
    72   36   99 1    
    73   36  100 1    
    74   37   38 am   BACKBONE|DICT|INTERRES
    75   37  101 1    
    76   38   39 2    
    77   38   40 1    
    78   40   41 1    
    79   40   42 1    
    80   40  102 1    
    81   41  103 1    
    82   41  104 1    
    83   41  105 1    
    84   42   43 am   BACKBONE|DICT|INTERRES
    85   42  106 1    
    86   43   44 2    
    87   43   45 1    
    88   45   46 1    
    89   45   49 1    
    90   45  107 1    
    91   46   47 1    
    92   46  108 1    
    93   46  109 1    
    94   47   48 1    
    95   48  110 1    
    96   48  111 1    
    97   49   50 am   BACKBONE|DICT|INTERRES
    98   49  112 1    
    99   50   51 2    
   100   50   52 1    
   101   52   53 1    
   102   52   54 1    
   103   52  113 1    
   104   53  114 1    
   105   53  115 1    
   106   53  116 1    
   107   54   55 am   BACKBONE|DICT|INTERRES
   108   54  117 1    
   109   55   56 2    
   110   55   57 1    
   111   57   58 1    
   112   57   59 1    
   113   57  118 1    
   114   58  119 1    
   115   58  120 1    
   116   58  121 1    
   117   59   60 am   BACKBONE|DICT|INTERRES
   118   59  122 1    
   119   60   61 2    
   120   60   62 1    
   121   62   63 1    
   122   62   64 1    
   123   62  123 1    
   124   63  124 1    
   125   63  125 1    
   126   63  126 1    
   127   64   65 am   BACKBONE|DICT|INTERRES
   128   64  127 1    
   129   65   66 2    
@<TRIPOS>SUBSTRUCTURE
     1 UNK         1 GROUP             0       ****    0 ROOT    
