@<TRIPOS>MOLECULE
3R134
127   129    1
SMALL
USER_CHARGES


@<TRIPOS>ATOM
      1 CA         33.6296  -42.6742  -58.3164 C.3       0 UNK        -0.1968 
      2 C          33.2464  -43.7135  -57.2731 C.2       0 UNK         0.4852 
      3 O          32.0831  -44.1095  -57.2134 O.2       0 UNK        -0.5359 
      4 N          34.2137  -44.1425  -56.4531 N.am      1 UNK        -0.4300 
      5 CA         34.0529  -45.1593  -55.4099 C.3       1 UNK         0.0863 
      6 C6         34.7448  -44.7438  -54.0790 C.3       11 UNK        -0.0953 
      7 S7         34.2302  -43.1026  -53.4633 S.3       11 UNK        -0.2369 
      8 C8         33.2341  -43.5147  -51.9871 C.3       11 UNK         0.0226 
      9 C9         31.7515  -43.8151  -52.2263 C.ar      11 UNK        -0.0699 
     10 C10        30.9646  -44.1536  -51.1201 C.ar      11 UNK        -0.0804 
     11 C11        29.5952  -44.4009  -51.2578 C.ar      11 UNK        -0.0871 
     12 C12        29.0052  -44.3139  -52.5209 C.ar      11 UNK        -0.1008 
     13 C13        29.7796  -44.0014  -53.6396 C.ar      11 UNK        -0.0735 
     14 C14        31.1443  -43.7422  -53.4876 C.ar      11 UNK        -0.0945 
     15 C15        29.1535  -43.9725  -55.0211 C.3       11 UNK         0.0169 
     16 S16        28.5409  -42.3150  -55.4552 S.3       11 UNK        -0.2669 
     17 C17        28.7494  -42.3349  -57.2712 C.3       11 UNK        -0.0850 
     18 CA         27.5267  -42.8957  -58.0448 C.3       10 UNK         0.0855 
     19 C          27.7806  -42.8113  -59.5791 C.2       10 UNK         0.5543 
     20 N          28.0195  -43.9177  -60.2756 N.am      10 UNK        -0.7343 
     21 O          27.7595  -41.7204  -60.1432 O.2       10 UNK        -0.5027 
     22 N          27.1586  -44.2397  -57.5783 N.am      10 UNK        -0.4495 
     23 C          26.0130  -44.8726  -57.8534 C.2       10 UNK         0.4903 
     24 O          25.0630  -44.3380  -58.4272 O.2       10 UNK        -0.4860 
     25 CA         25.9035  -46.3483  -57.4130 C.3       9 UNK         0.0227 
     26 CB         25.1397  -47.2013  -58.4468 C.3       9 UNK        -0.1964 
     27 N          27.1767  -47.0004  -57.0670 N.am      9 UNK        -0.4231 
     28 C          28.2555  -47.1733  -57.8502 C.2       9 UNK         0.5014 
     29 O          28.3770  -46.6847  -58.9750 O.2       9 UNK        -0.5270 
     30 CA         29.3867  -48.0456  -57.2782 C.3       8 UNK         0.0284 
     31 CB         30.2412  -47.2578  -56.2714 C.3       8 UNK        -0.1977 
     32 N          28.8772  -49.2589  -56.6389 N.am      8 UNK        -0.4342 
     33 C          28.2719  -50.2705  -57.2773 C.2       8 UNK         0.5039 
     34 O          28.1450  -50.3384  -58.5003 O.2       8 UNK        -0.5547 
     35 CA         27.6903  -51.3865  -56.3972 C.3       7 UNK         0.0281 
     36 CB         28.7836  -52.3758  -55.9602 C.3       7 UNK        -0.1963 
     37 N          27.0187  -50.8350  -55.2189 N.am      7 UNK        -0.4444 
     38 C          25.7671  -50.3564  -55.2190 C.2       7 UNK         0.5104 
     39 O          25.0217  -50.3914  -56.1981 O.2       7 UNK        -0.5100 
     40 CA         25.2444  -49.7420  -53.9071 C.3       6 UNK         0.0396 
     41 CB         24.4007  -50.7699  -53.1365 C.3       6 UNK        -0.1801 
     42 N          26.3015  -49.2342  -53.0282 N.am      6 UNK        -0.4747 
     43 C          27.0091  -48.1184  -53.2554 C.2       6 UNK         0.5012 
     44 O          26.8645  -47.4025  -54.2468 O.2       6 UNK        -0.5003 
     45 CA         28.1020  -47.7773  -52.2222 C.3       5 UNK         0.0782 
     46 C46        27.4703  -47.0945  -50.9837 C.3       11 UNK        -0.0868 
     47 S47        28.7067  -46.5512  -49.7553 S.3       11 UNK        -0.2515 
     48 C48        28.7574  -44.7530  -50.0378 C.3       11 UNK         0.0199 
     49 N          28.9475  -48.9236  -51.8570 N.am      5 UNK        -0.4607 
     50 C          29.6005  -49.7100  -52.7207 C.2       4 UNK         0.5031 
     51 O          29.4422  -49.6649  -53.9421 O.2       4 UNK        -0.5119 
     52 CA         30.5683  -50.7469  -52.1263 C.3       4 UNK         0.0263 
     53 CB         29.8114  -52.0388  -51.7782 C.3       4 UNK        -0.1967 
     54 N          31.6476  -51.0628  -53.0675 N.am      4 UNK        -0.4237 
     55 C          32.5584  -50.1786  -53.4962 C.2       3 UNK         0.4908 
     56 O          32.6956  -49.0457  -53.0215 O.2       3 UNK        -0.5102 
     57 CA         33.4449  -50.6241  -54.6675 C.3       3 UNK         0.0241 
     58 CB         32.6015  -50.9188  -55.9278 C.3       3 UNK        -0.1971 
     59 N          34.3943  -49.5483  -54.9300 N.am      3 UNK        -0.4139 
     60 C          35.4858  -49.5950  -55.6986 C.2       2 UNK         0.5016 
     61 O          35.8540  -50.6077  -56.2969 O.2       2 UNK        -0.5319 
     62 CA         36.3259  -48.3029  -55.7944 C.3       2 UNK         0.0286 
     63 CB         36.9769  -48.1297  -57.1841 C.3       2 UNK        -0.1963 
     64 N          35.6199  -47.0726  -55.3923 N.am      2 UNK        -0.4790 
     65 C          34.5526  -46.5057  -55.9817 C.2       1 UNK         0.5024 
     66 O          33.9717  -46.9989  -56.9493 O.2       1 UNK        -0.4888 
     67 H67        33.0322  -41.7728  -58.1828 H         1 UNK         0.0892 
     68 H68        34.6815  -42.3968  -58.2508 H         1 UNK         0.0892 
     69 H69        33.4422  -43.0623  -59.3171 H         1 UNK         0.0892 
     70 H70        35.1517  -43.7867  -56.5691 H         1 UNK         0.3107 
     71 H71        32.9928  -45.3036  -55.1931 H         1 UNK         0.0773 
     72 H72        35.8279  -44.6936  -54.2046 H         1 UNK         0.0680 
     73 H73        34.5565  -45.4915  -53.3065 H         1 UNK         0.0680 
     74 H74        33.2946  -42.6619  -51.3096 H         1 UNK         0.0650 
     75 H75        33.6959  -44.3507  -51.4602 H         1 UNK         0.0650 
     76 H76        31.4200  -44.2161  -50.1408 H         1 UNK         0.1397 
     77 H77        27.9469  -44.5026  -52.6388 H         1 UNK         0.1363 
     78 H78        31.7181  -43.4807  -54.3647 H         1 UNK         0.1355 
     79 H79        29.8904  -44.3044  -55.7515 H         1 UNK         0.0707 
     80 H80        28.3298  -44.6863  -55.0688 H         1 UNK         0.0707 
     81 H81        28.9398  -41.3053  -57.5806 H         1 UNK         0.1034 
     82 H82        29.6559  -42.8856  -57.5297 H         1 UNK         0.1034 
     83 H83        26.6777  -42.2418  -57.8364 H         1 UNK         0.0482 
     84 H84        28.0590  -44.8211  -59.8158 H         1 UNK         0.3460 
     85 H85        28.1804  -43.8519  -61.2678 H         1 UNK         0.3460 
     86 H86        27.8882  -44.7656  -57.1254 H         1 UNK         0.2989 
     87 H87        25.3166  -46.3417  -56.4936 H         1 UNK         0.0559 
     88 H88        25.6466  -47.2127  -59.4123 H         1 UNK         0.0848 
     89 H89        24.1327  -46.8164  -58.6116 H         1 UNK         0.0848 
     90 H90        25.0380  -48.2334  -58.1105 H         1 UNK         0.0848 
     91 H91        27.2062  -47.3769  -56.1218 H         1 UNK         0.3144 
     92 H92        30.0293  -48.3473  -58.1080 H         1 UNK         0.0727 
     93 H93        29.6627  -46.9445  -55.4017 H         1 UNK         0.0790 
     94 H94        30.6604  -46.3646  -56.7352 H         1 UNK         0.0790 
     95 H95        31.0811  -47.8514  -55.9107 H         1 UNK         0.0790 
     96 H96        28.9969  -49.3305  -55.6283 H         1 UNK         0.3215 
     97 H97        26.9613  -51.9377  -56.9958 H         1 UNK         0.0863 
     98 H98        28.3617  -53.2059  -55.3935 H         1 UNK         0.0808 
     99 H99        29.5413  -51.8990  -55.3397 H         1 UNK         0.0808 
    100 H100       29.2924  -52.8003  -56.8267 H         1 UNK         0.0808 
    101 H101       27.5878  -50.6970  -54.3941 H         1 UNK         0.3118 
    102 H102       24.5957  -48.9052  -54.1757 H         1 UNK         0.0546 
    103 H103       24.9949  -51.6301  -52.8254 H         1 UNK         0.0828 
    104 H104       23.5836  -51.1456  -53.7543 H         1 UNK         0.0828 
    105 H105       23.9530  -50.3293  -52.2456 H         1 UNK         0.0828 
    106 H106       26.5051  -49.7718  -52.1974 H         1 UNK         0.3005 
    107 H107       28.7660  -47.0593  -52.7070 H         1 UNK         0.1257 
    108 H108       26.7885  -47.7816  -50.4790 H         1 UNK         0.0775 
    109 H109       26.8603  -46.2400  -51.2823 H         1 UNK         0.0775 
    110 H110       27.7455  -44.3570  -50.1367 H         1 UNK         0.0840 
    111 H111       29.1784  -44.2741  -49.1524 H         1 UNK         0.0840 
    112 H112       29.1269  -49.0304  -50.8688 H         1 UNK         0.2987 
    113 H113       31.0142  -50.3344  -51.2188 H         1 UNK         0.0785 
    114 H114       29.0187  -51.8466  -51.0538 H         1 UNK         0.0798 
    115 H115       30.4762  -52.7813  -51.3362 H         1 UNK         0.0798 
    116 H116       29.3467  -52.4858  -52.6582 H         1 UNK         0.0798 
    117 H117       31.5987  -51.9635  -53.5196 H         1 UNK         0.3079 
    118 H118       33.9965  -51.5173  -54.3680 H         1 UNK         0.0794 
    119 H119       31.9317  -51.7635  -55.7687 H         1 UNK         0.0786 
    120 H120       33.2275  -51.1734  -56.7827 H         1 UNK         0.0786 
    121 H121       31.9876  -50.0631  -56.2107 H         1 UNK         0.0786 
    122 H122       34.1788  -48.6955  -54.4273 H         1 UNK         0.3032 
    123 H123       37.1348  -48.4336  -55.0735 H         1 UNK         0.1094 
    124 H124       37.5874  -47.2279  -57.2275 H         1 UNK         0.0794 
    125 H125       36.2304  -48.0690  -57.9766 H         1 UNK         0.0794 
    126 H126       37.6302  -48.9708  -57.4197 H         1 UNK         0.0794 
    127 H127       36.0178  -46.5967  -54.5939 H         1 UNK         0.3016 
@<TRIPOS>BOND
     1    1    2 1    
     2    1   67 1    
     3    1   68 1    
     4    1   69 1    
     5    2    3 2    
     6    2    4 am   BACKBONE|DICT|INTERRES
     7    4    5 1    
     8    4   70 1    
     9    5    6 1    
    10    5   65 1    
    11    5   71 1    
    12    6    7 1    
    13    6   72 1    
    14    6   73 1    
    15    7    8 1    
    16    8    9 1    
    17    8   74 1    
    18    8   75 1    
    19    9   10 ar   
    20    9   14 ar   
    21   10   11 ar   
    22   10   76 1    
    23   11   12 ar   
    24   11   48 1    
    25   12   13 ar   
    26   12   77 1    
    27   13   14 ar   
    28   13   15 1    
    29   14   78 1    
    30   15   16 1    
    31   15   79 1    
    32   15   80 1    
    33   16   17 1    
    34   17   18 1    
    35   17   81 1    
    36   17   82 1    
    37   18   19 1    
    38   18   22 1    
    39   18   83 1    
    40   19   20 am   BACKBONE|DICT|INTERRES
    41   19   21 2    
    42   20   84 1    
    43   20   85 1    
    44   22   23 am   BACKBONE|DICT|INTERRES
    45   22   86 1    
    46   23   24 2    
    47   23   25 1    
    48   25   26 1    
    49   25   27 1    
    50   25   87 1    
    51   26   88 1    
    52   26   89 1    
    53   26   90 1    
    54   27   28 am   BACKBONE|DICT|INTERRES
    55   27   91 1    
    56   28   29 2    
    57   28   30 1    
    58   30   31 1    
    59   30   32 1    
    60   30   92 1    
    61   31   93 1    
    62   31   94 1    
    63   31   95 1    
    64   32   33 am   BACKBONE|DICT|INTERRES
    65   32   96 1    
    66   33   34 2    
    67   33   35 1    
    68   35   36 1    
    69   35   37 1    
    70   35   97 1    
    71   36   98 1    
    72   36   99 1    
    73   36  100 1    
    74   37   38 am   BACKBONE|DICT|INTERRES
    75   37  101 1    
    76   38   39 2    
    77   38   40 1    
    78   40   41 1    
    79   40   42 1    
    80   40  102 1    
    81   41  103 1    
    82   41  104 1    
    83   41  105 1    
    84   42   43 am   BACKBONE|DICT|INTERRES
    85   42  106 1    
    86   43   44 2    
    87   43   45 1    
    88   45   46 1    
    89   45   49 1    
    90   45  107 1    
    91   46   47 1    
    92   46  108 1    
    93   46  109 1    
    94   47   48 1    
    95   48  110 1    
    96   48  111 1    
    97   49   50 am   BACKBONE|DICT|INTERRES
    98   49  112 1    
    99   50   51 2    
   100   50   52 1    
   101   52   53 1    
   102   52   54 1    
   103   52  113 1    
   104   53  114 1    
   105   53  115 1    
   106   53  116 1    
   107   54   55 am   BACKBONE|DICT|INTERRES
   108   54  117 1    
   109   55   56 2    
   110   55   57 1    
   111   57   58 1    
   112   57   59 1    
   113   57  118 1    
   114   58  119 1    
   115   58  120 1    
   116   58  121 1    
   117   59   60 am   BACKBONE|DICT|INTERRES
   118   59  122 1    
   119   60   61 2    
   120   60   62 1    
   121   62   63 1    
   122   62   64 1    
   123   62  123 1    
   124   63  124 1    
   125   63  125 1    
   126   63  126 1    
   127   64   65 am   BACKBONE|DICT|INTERRES
   128   64  127 1    
   129   65   66 2    
@<TRIPOS>SUBSTRUCTURE
     1 UNK         1 GROUP             0       ****    0 ROOT    
