@<TRIPOS>MOLECULE
3R134
127   129    1
SMALL
USER_CHARGES


@<TRIPOS>ATOM
      1 CA         32.7300  -46.2518  -59.6769 C.3       0 UNK        -0.1968 
      2 C          31.3354  -46.5623  -59.1410 C.2       0 UNK         0.4852 
      3 O          30.4095  -46.6567  -59.9415 O.2       0 UNK        -0.5359 
      4 N          31.1124  -46.7349  -57.8280 N.am      1 UNK        -0.4300 
      5 CA         32.0793  -46.8356  -56.7285 C.3       1 UNK         0.0863 
      6 C6         32.9571  -45.5679  -56.5394 C.3       11 UNK        -0.0953 
      7 S7         33.7058  -45.4650  -54.8793 S.3       11 UNK        -0.2369 
      8 C8         33.6528  -43.6757  -54.5644 C.3       11 UNK         0.0226 
      9 C9         32.4209  -43.2924  -53.7618 C.ar      11 UNK        -0.0699 
     10 C10        32.4627  -43.3536  -52.3668 C.ar      11 UNK        -0.0804 
     11 C11        31.3479  -42.9963  -51.6047 C.ar      11 UNK        -0.0871 
     12 C12        30.1868  -42.5605  -52.2499 C.ar      11 UNK        -0.1008 
     13 C13        30.1351  -42.4878  -53.6461 C.ar      11 UNK        -0.0735 
     14 C14        31.2528  -42.8626  -54.3992 C.ar      11 UNK        -0.0945 
     15 C15        28.8777  -41.9775  -54.3323 C.3       11 UNK         0.0169 
     16 S16        27.5779  -43.2493  -54.3505 S.3       11 UNK        -0.2669 
     17 C17        27.2354  -43.4507  -56.1337 C.3       11 UNK        -0.0850 
     18 CA         26.7662  -44.8925  -56.4841 C.3       10 UNK         0.0855 
     19 C          25.2526  -45.1689  -56.2039 C.2       10 UNK         0.5543 
     20 N          24.6127  -46.0995  -56.9047 N.am      10 UNK        -0.7343 
     21 O          24.6480  -44.5549  -55.3295 O.2       10 UNK        -0.5027 
     22 N          27.2045  -45.3182  -57.8192 N.am      10 UNK        -0.4495 
     23 C          26.7675  -44.8139  -58.9829 C.2       10 UNK         0.4903 
     24 O          26.0903  -43.7896  -59.0746 O.2       10 UNK        -0.4860 
     25 CA         27.1001  -45.6009  -60.2653 C.3       9 UNK         0.0227 
     26 CB         28.1091  -44.8274  -61.1299 C.3       9 UNK        -0.1964 
     27 N          27.5873  -46.9642  -60.0076 N.am      9 UNK        -0.4231 
     28 C          26.8236  -47.9516  -59.5124 C.2       9 UNK         0.5014 
     29 O          25.6268  -47.8102  -59.2510 O.2       9 UNK        -0.5270 
     30 CA         27.4772  -49.3119  -59.1985 C.3       8 UNK         0.0284 
     31 CB         28.8838  -49.5271  -59.7950 C.3       8 UNK        -0.1977 
     32 N          27.4718  -49.5892  -57.7565 N.am      8 UNK        -0.4342 
     33 C          27.9986  -48.8267  -56.7881 C.2       8 UNK         0.5039 
     34 O          28.6418  -47.7902  -56.9890 O.2       8 UNK        -0.5547 
     35 CA         27.7966  -49.3214  -55.3523 C.3       7 UNK         0.0281 
     36 CB         29.0009  -50.1604  -54.8953 C.3       7 UNK        -0.1963 
     37 N          27.6636  -48.1694  -54.4648 N.am      7 UNK        -0.4444 
     38 C          26.5748  -47.8659  -53.7473 C.2       7 UNK         0.5104 
     39 O          25.5475  -48.5464  -53.7455 O.2       7 UNK        -0.5100 
     40 CA         26.6417  -46.5800  -52.8941 C.3       6 UNK         0.0396 
     41 CB         25.6516  -46.5951  -51.7099 C.3       6 UNK        -0.1801 
     42 N          27.9977  -46.2332  -52.4428 N.am      6 UNK        -0.4747 
     43 C          28.7784  -46.9740  -51.6427 C.2       6 UNK         0.5012 
     44 O          28.4390  -48.0596  -51.1640 O.2       6 UNK        -0.5003 
     45 CA         30.1580  -46.3882  -51.2837 C.3       5 UNK         0.0782 
     46 C46        30.0412  -45.5386  -49.9927 C.3       11 UNK        -0.0868 
     47 S47        31.6220  -44.7795  -49.4937 S.3       11 UNK        -0.2515 
     48 C48        31.4110  -43.0695  -50.0856 C.3       11 UNK         0.0199 
     49 N          31.1337  -47.4724  -51.1435 N.am      5 UNK        -0.4607 
     50 C          31.6055  -48.2054  -52.1572 C.2       4 UNK         0.5031 
     51 O          31.3780  -47.9753  -53.3482 O.2       4 UNK        -0.5119 
     52 CA         32.4366  -49.4296  -51.7643 C.3       4 UNK         0.0263 
     53 CB         31.5147  -50.6030  -51.3771 C.3       4 UNK        -0.1967 
     54 N          33.2828  -49.8050  -52.8910 N.am      4 UNK        -0.4237 
     55 C          34.3529  -50.6062  -52.8348 C.2       3 UNK         0.4908 
     56 O          34.7587  -51.1186  -51.7897 O.2       3 UNK        -0.5102 
     57 CA         35.1214  -50.8621  -54.1485 C.3       3 UNK         0.0241 
     58 CB         35.7339  -52.2783  -54.2080 C.3       3 UNK        -0.1971 
     59 N          34.3553  -50.5712  -55.3680 N.am      3 UNK        -0.4139 
     60 C          33.2507  -51.1807  -55.8219 C.2       2 UNK         0.5016 
     61 O          32.6802  -52.1054  -55.2415 O.2       2 UNK        -0.5319 
     62 CA         32.6792  -50.6247  -57.1413 C.3       2 UNK         0.0286 
     63 CB         31.5911  -51.5277  -57.7500 C.3       2 UNK        -0.1963 
     64 N          32.1388  -49.2717  -56.9781 N.am      2 UNK        -0.4790 
     65 C          32.8698  -48.1562  -56.8417 C.2       1 UNK         0.5024 
     66 O          34.1024  -48.1550  -56.8583 O.2       1 UNK        -0.4888 
     67 H67        32.9924  -45.2148  -59.4717 H         1 UNK         0.0892 
     68 H68        33.4928  -46.9035  -59.2565 H         1 UNK         0.0892 
     69 H69        32.7535  -46.3873  -60.7579 H         1 UNK         0.0892 
     70 H70        30.1606  -46.9709  -57.5485 H         1 UNK         0.3107 
     71 H71        31.4638  -46.9337  -55.8327 H         1 UNK         0.0773 
     72 H72        32.3423  -44.6812  -56.6978 H         1 UNK         0.0680 
     73 H73        33.7638  -45.5149  -57.2703 H         1 UNK         0.0680 
     74 H74        33.6947  -43.1204  -55.5026 H         1 UNK         0.0650 
     75 H75        34.5506  -43.3956  -54.0113 H         1 UNK         0.0650 
     76 H76        33.3638  -43.6888  -51.8710 H         1 UNK         0.1397 
     77 H77        29.3211  -42.2719  -51.6690 H         1 UNK         0.1363 
     78 H78        31.2179  -42.8084  -55.4785 H         1 UNK         0.1355 
     79 H79        28.5027  -41.1031  -53.7983 H         1 UNK         0.0707 
     80 H80        29.1039  -41.6345  -55.3426 H         1 UNK         0.0707 
     81 H81        26.5046  -42.7068  -56.4560 H         1 UNK         0.1034 
     82 H82        28.1523  -43.2264  -56.6805 H         1 UNK         0.1034 
     83 H83        27.2969  -45.5741  -55.8201 H         1 UNK         0.0482 
     84 H84        25.0750  -46.6140  -57.6453 H         1 UNK         0.3460 
     85 H85        23.6397  -46.2732  -56.7100 H         1 UNK         0.3460 
     86 H86        27.7515  -46.1727  -57.8346 H         1 UNK         0.2989 
     87 H87        26.1743  -45.6884  -60.8377 H         1 UNK         0.0559 
     88 H88        27.6811  -43.8843  -61.4721 H         1 UNK         0.0848 
     89 H89        28.3966  -45.3936  -62.0159 H         1 UNK         0.0848 
     90 H90        29.0154  -44.5832  -60.5756 H         1 UNK         0.0848 
     91 H91        28.5924  -47.1045  -60.1044 H         1 UNK         0.3144 
     92 H92        26.8226  -50.0542  -59.6579 H         1 UNK         0.0727 
     93 H93        29.1441  -50.5852  -59.7819 H         1 UNK         0.0790 
     94 H94        29.6548  -49.0018  -59.2356 H         1 UNK         0.0790 
     95 H95        28.9383  -49.2027  -60.8350 H         1 UNK         0.0790 
     96 H96        26.9461  -50.4078  -57.4820 H         1 UNK         0.3215 
     97 H97        26.8999  -49.9436  -55.3130 H         1 UNK         0.0863 
     98 H98        28.8980  -50.4605  -53.8522 H         1 UNK         0.0808 
     99 H99        29.9394  -49.6134  -54.9889 H         1 UNK         0.0808 
    100 H100       29.0884  -51.0731  -55.4845 H         1 UNK         0.0808 
    101 H101       28.4482  -47.5330  -54.4550 H         1 UNK         0.3118 
    102 H102       26.3296  -45.7707  -53.5500 H         1 UNK         0.0546 
    103 H103       24.6237  -46.6873  -52.0627 H         1 UNK         0.0828 
    104 H104       25.7105  -45.6733  -51.1315 H         1 UNK         0.0828 
    105 H105       25.8374  -47.4301  -51.0339 H         1 UNK         0.0828 
    106 H106       28.3489  -45.3467  -52.7826 H         1 UNK         0.3005 
    107 H107       30.4875  -45.7459  -52.1043 H         1 UNK         0.1257 
    108 H108       29.6925  -46.1540  -49.1607 H         1 UNK         0.0775 
    109 H109       29.2937  -44.7523  -50.1155 H         1 UNK         0.0775 
    110 H110       30.5184  -42.6359  -49.6318 H         1 UNK         0.0840 
    111 H111       32.2522  -42.4695  -49.7359 H         1 UNK         0.0840 
    112 H112       31.3534  -47.7434  -50.1966 H         1 UNK         0.2987 
    113 H113       33.0719  -49.1617  -50.9172 H         1 UNK         0.0785 
    114 H114       32.0858  -51.4665  -51.0361 H         1 UNK         0.0798 
    115 H115       30.8999  -50.9214  -52.2200 H         1 UNK         0.0798 
    116 H116       30.8387  -50.3244  -50.5676 H         1 UNK         0.0798 
    117 H117       33.0115  -49.3836  -53.7704 H         1 UNK         0.3079 
    118 H118       35.9485  -50.1507  -54.1447 H         1 UNK         0.0794 
    119 H119       36.4307  -52.4403  -53.3846 H         1 UNK         0.0786 
    120 H120       36.2893  -52.4324  -55.1331 H         1 UNK         0.0786 
    121 H121       34.9693  -53.0528  -54.1419 H         1 UNK         0.0786 
    122 H122       34.6723  -49.7649  -55.9007 H         1 UNK         0.3032 
    123 H123       33.5052  -50.5863  -57.8559 H         1 UNK         0.1094 
    124 H124       31.2856  -51.1684  -58.7322 H         1 UNK         0.0794 
    125 H125       31.9587  -52.5464  -57.8819 H         1 UNK         0.0794 
    126 H126       30.7045  -51.5815  -57.1193 H         1 UNK         0.0794 
    127 H127       31.1327  -49.1868  -56.9647 H         1 UNK         0.3016 
@<TRIPOS>BOND
     1    1    2 1    
     2    1   67 1    
     3    1   68 1    
     4    1   69 1    
     5    2    3 2    
     6    2    4 am   BACKBONE|DICT|INTERRES
     7    4    5 1    
     8    4   70 1    
     9    5    6 1    
    10    5   65 1    
    11    5   71 1    
    12    6    7 1    
    13    6   72 1    
    14    6   73 1    
    15    7    8 1    
    16    8    9 1    
    17    8   74 1    
    18    8   75 1    
    19    9   10 ar   
    20    9   14 ar   
    21   10   11 ar   
    22   10   76 1    
    23   11   12 ar   
    24   11   48 1    
    25   12   13 ar   
    26   12   77 1    
    27   13   14 ar   
    28   13   15 1    
    29   14   78 1    
    30   15   16 1    
    31   15   79 1    
    32   15   80 1    
    33   16   17 1    
    34   17   18 1    
    35   17   81 1    
    36   17   82 1    
    37   18   19 1    
    38   18   22 1    
    39   18   83 1    
    40   19   20 am   BACKBONE|DICT|INTERRES
    41   19   21 2    
    42   20   84 1    
    43   20   85 1    
    44   22   23 am   BACKBONE|DICT|INTERRES
    45   22   86 1    
    46   23   24 2    
    47   23   25 1    
    48   25   26 1    
    49   25   27 1    
    50   25   87 1    
    51   26   88 1    
    52   26   89 1    
    53   26   90 1    
    54   27   28 am   BACKBONE|DICT|INTERRES
    55   27   91 1    
    56   28   29 2    
    57   28   30 1    
    58   30   31 1    
    59   30   32 1    
    60   30   92 1    
    61   31   93 1    
    62   31   94 1    
    63   31   95 1    
    64   32   33 am   BACKBONE|DICT|INTERRES
    65   32   96 1    
    66   33   34 2    
    67   33   35 1    
    68   35   36 1    
    69   35   37 1    
    70   35   97 1    
    71   36   98 1    
    72   36   99 1    
    73   36  100 1    
    74   37   38 am   BACKBONE|DICT|INTERRES
    75   37  101 1    
    76   38   39 2    
    77   38   40 1    
    78   40   41 1    
    79   40   42 1    
    80   40  102 1    
    81   41  103 1    
    82   41  104 1    
    83   41  105 1    
    84   42   43 am   BACKBONE|DICT|INTERRES
    85   42  106 1    
    86   43   44 2    
    87   43   45 1    
    88   45   46 1    
    89   45   49 1    
    90   45  107 1    
    91   46   47 1    
    92   46  108 1    
    93   46  109 1    
    94   47   48 1    
    95   48  110 1    
    96   48  111 1    
    97   49   50 am   BACKBONE|DICT|INTERRES
    98   49  112 1    
    99   50   51 2    
   100   50   52 1    
   101   52   53 1    
   102   52   54 1    
   103   52  113 1    
   104   53  114 1    
   105   53  115 1    
   106   53  116 1    
   107   54   55 am   BACKBONE|DICT|INTERRES
   108   54  117 1    
   109   55   56 2    
   110   55   57 1    
   111   57   58 1    
   112   57   59 1    
   113   57  118 1    
   114   58  119 1    
   115   58  120 1    
   116   58  121 1    
   117   59   60 am   BACKBONE|DICT|INTERRES
   118   59  122 1    
   119   60   61 2    
   120   60   62 1    
   121   62   63 1    
   122   62   64 1    
   123   62  123 1    
   124   63  124 1    
   125   63  125 1    
   126   63  126 1    
   127   64   65 am   BACKBONE|DICT|INTERRES
   128   64  127 1    
   129   65   66 2    
@<TRIPOS>SUBSTRUCTURE
     1 UNK         1 GROUP             0       ****    0 ROOT    
