@<TRIPOS>MOLECULE
3R134
127   129    1
SMALL
USER_CHARGES


@<TRIPOS>ATOM
      1 CA         33.3579  -41.3562  -50.4969 C.3       0 UNK        -0.1968 
      2 C          34.0988  -42.6825  -50.4082 C.2       0 UNK         0.4852 
      3 O          34.9067  -42.8720  -49.4974 O.2       0 UNK        -0.5359 
      4 N          33.8344  -43.5972  -51.3494 N.am      1 UNK        -0.4300 
      5 CA         34.4068  -44.9444  -51.3876 C.3       1 UNK         0.0863 
      6 C6         34.2600  -45.5969  -52.7845 C.3       11 UNK        -0.0953 
      7 S7         35.3219  -44.8193  -54.0395 S.3       11 UNK        -0.2369 
      8 C8         34.1399  -43.7613  -54.9349 C.3       11 UNK         0.0226 
      9 C9         33.2552  -44.5140  -55.9250 C.ar      11 UNK        -0.0699 
     10 C10        33.8242  -45.3018  -56.9316 C.ar      11 UNK        -0.0804 
     11 C11        33.0266  -45.8708  -57.9298 C.ar      11 UNK        -0.0871 
     12 C12        31.6444  -45.6524  -57.9131 C.ar      11 UNK        -0.1008 
     13 C13        31.0612  -44.8753  -56.9088 C.ar      11 UNK        -0.0735 
     14 C14        31.8694  -44.3237  -55.9088 C.ar      11 UNK        -0.0945 
     15 C15        29.5798  -44.5298  -56.9661 C.3       11 UNK         0.0169 
     16 S16        28.5186  -45.7627  -56.1498 S.3       11 UNK        -0.2669 
     17 C17        27.0354  -44.7194  -55.9347 C.3       11 UNK        -0.0850 
     18 CA         25.8360  -45.4265  -55.2530 C.3       10 UNK         0.0855 
     19 C          24.7349  -44.3828  -54.8910 C.2       10 UNK         0.5543 
     20 N          23.5565  -44.4027  -55.5057 N.am      10 UNK        -0.7343 
     21 O          24.9568  -43.5380  -54.0272 O.2       10 UNK        -0.5027 
     22 N          25.3341  -46.5680  -56.0356 N.am      10 UNK        -0.4495 
     23 C          24.5339  -47.5175  -55.5240 C.2       10 UNK         0.4903 
     24 O          24.3016  -47.6221  -54.3186 O.2       10 UNK        -0.4860 
     25 CA         23.8725  -48.5177  -56.4968 C.3       9 UNK         0.0227 
     26 CB         22.4643  -48.9446  -56.0305 C.3       9 UNK        -0.1964 
     27 N          23.8418  -48.0728  -57.8947 N.am      9 UNK        -0.4231 
     28 C          23.2348  -46.9862  -58.4006 C.2       9 UNK         0.5014 
     29 O          22.5572  -46.2058  -57.7284 O.2       9 UNK        -0.5270 
     30 CA         23.4847  -46.7051  -59.9006 C.3       8 UNK         0.0284 
     31 CB         23.1642  -45.2479  -60.2975 C.3       8 UNK        -0.1977 
     32 N          24.8449  -47.0766  -60.3244 N.am      8 UNK        -0.4342 
     33 C          25.9874  -46.6250  -59.7867 C.2       8 UNK         0.5039 
     34 O          26.0451  -45.7421  -58.9302 O.2       8 UNK        -0.5547 
     35 CA         27.2749  -47.3672  -60.1734 C.3       7 UNK         0.0281 
     36 CB         28.3410  -46.4004  -60.7145 C.3       7 UNK        -0.1963 
     37 N          27.7981  -48.0564  -58.9928 N.am      7 UNK        -0.4444 
     38 C          27.1934  -49.0791  -58.3713 C.2       7 UNK         0.5104 
     39 O          26.1768  -49.6297  -58.8002 O.2       7 UNK        -0.5100 
     40 CA         27.8037  -49.5223  -57.0279 C.3       6 UNK         0.0396 
     41 CB         27.3602  -50.9365  -56.5959 C.3       6 UNK        -0.1801 
     42 N          29.2639  -49.3862  -56.9938 N.am      6 UNK        -0.4747 
     43 C          30.1633  -50.0631  -57.7270 C.2       6 UNK         0.5012 
     44 O          29.8665  -50.9366  -58.5427 O.2       6 UNK        -0.5003 
     45 CA         31.6494  -49.6843  -57.5453 C.3       5 UNK         0.0782 
     46 C46        32.1842  -49.0261  -58.8425 C.3       11 UNK        -0.0868 
     47 S47        33.8953  -48.4086  -58.6946 S.3       11 UNK        -0.2515 
     48 C48        33.6758  -46.6412  -59.0731 C.3       11 UNK         0.0199 
     49 N          31.8956  -48.8638  -56.3505 N.am      5 UNK        -0.4607 
     50 C          31.8524  -49.3261  -55.0955 C.2       4 UNK         0.5031 
     51 O          31.5269  -50.4785  -54.8005 O.2       4 UNK        -0.5119 
     52 CA         32.1901  -48.3116  -53.9917 C.3       4 UNK         0.0263 
     53 CB         30.9742  -47.4192  -53.6940 C.3       4 UNK        -0.1967 
     54 N          32.6125  -48.9605  -52.7485 N.am      4 UNK        -0.4237 
     55 C          33.7509  -49.6477  -52.5885 C.2       3 UNK         0.4908 
     56 O          34.6201  -49.7546  -53.4555 O.2       3 UNK        -0.5102 
     57 CA         33.9775  -50.2392  -51.1917 C.3       3 UNK         0.0241 
     58 CB         35.1183  -51.2741  -51.1529 C.3       3 UNK        -0.1971 
     59 N          34.3025  -49.1272  -50.3056 N.am      3 UNK        -0.4139 
     60 C          33.6625  -48.8058  -49.1754 C.2       2 UNK         0.5016 
     61 O          32.7631  -49.4803  -48.6731 O.2       2 UNK        -0.5319 
     62 CA         34.0864  -47.4846  -48.5078 C.3       2 UNK         0.0286 
     63 CB         35.1925  -47.7338  -47.4698 C.3       2 UNK        -0.1963 
     64 N          34.5471  -46.4883  -49.4836 N.am      2 UNK        -0.4790 
     65 C          33.7344  -45.8274  -50.3205 C.2       1 UNK         0.5024 
     66 O          32.5055  -45.9258  -50.3021 O.2       1 UNK        -0.4888 
     67 H67        34.0685  -40.5348  -50.5851 H         1 UNK         0.0892 
     68 H68        32.6888  -41.3185  -51.3564 H         1 UNK         0.0892 
     69 H69        32.7635  -41.1979  -49.5974 H         1 UNK         0.0892 
     70 H70        33.1305  -43.4023  -52.0450 H         1 UNK         0.3107 
     71 H71        35.4718  -44.8706  -51.1554 H         1 UNK         0.0773 
     72 H72        34.5501  -46.6483  -52.7461 H         1 UNK         0.0680 
     73 H73        33.2222  -45.5753  -53.1187 H         1 UNK         0.0680 
     74 H74        33.5385  -43.2051  -54.2153 H         1 UNK         0.0650 
     75 H75        34.7084  -43.0148  -55.4908 H         1 UNK         0.0650 
     76 H76        34.8974  -45.4342  -56.9626 H         1 UNK         0.1397 
     77 H77        31.0239  -46.0441  -58.7066 H         1 UNK         0.1363 
     78 H78        31.4225  -43.6934  -55.1521 H         1 UNK         0.1355 
     79 H79        29.4242  -43.5539  -56.5036 H         1 UNK         0.0707 
     80 H80        29.2610  -44.4194  -58.0033 H         1 UNK         0.0707 
     81 H81        26.7377  -44.3194  -56.9052 H         1 UNK         0.1034 
     82 H82        27.3397  -43.8558  -55.3394 H         1 UNK         0.1034 
     83 H83        26.1989  -45.8195  -54.3012 H         1 UNK         0.0482 
     84 H84        23.3496  -45.0866  -56.2258 H         1 UNK         0.3460 
     85 H85        22.8601  -43.7203  -55.2526 H         1 UNK         0.3460 
     86 H86        25.4761  -46.5060  -57.0378 H         1 UNK         0.2989 
     87 H87        24.5019  -49.4070  -56.4816 H         1 UNK         0.0559 
     88 H88        22.0165  -49.6594  -56.7208 H         1 UNK         0.0848 
     89 H89        21.7899  -48.0919  -55.9457 H         1 UNK         0.0848 
     90 H90        22.5024  -49.4251  -55.0521 H         1 UNK         0.0848 
     91 H91        24.4251  -48.6217  -58.5198 H         1 UNK         0.3144 
     92 H92        22.8006  -47.3553  -60.4479 H         1 UNK         0.0727 
     93 H93        23.3386  -45.0782  -61.3599 H         1 UNK         0.0790 
     94 H94        23.7704  -44.5334  -59.7395 H         1 UNK         0.0790 
     95 H95        22.1184  -45.0097  -60.0994 H         1 UNK         0.0790 
     96 H96        24.9005  -47.8295  -60.9977 H         1 UNK         0.3215 
     97 H97        27.0565  -48.1107  -60.9430 H         1 UNK         0.0863 
     98 H98        29.2556  -46.9278  -60.9862 H         1 UNK         0.0808 
     99 H99        28.5995  -45.6323  -59.9852 H         1 UNK         0.0808 
    100 H100       27.9827  -45.8900  -61.6093 H         1 UNK         0.0808 
    101 H101       28.5850  -47.6270  -58.5300 H         1 UNK         0.3118 
    102 H102       27.4223  -48.8224  -56.2831 H         1 UNK         0.0546 
    103 H103       27.6326  -51.6918  -57.3333 H         1 UNK         0.0828 
    104 H104       26.2791  -50.9896  -56.4695 H         1 UNK         0.0828 
    105 H105       27.8098  -51.2191  -55.6441 H         1 UNK         0.0828 
    106 H106       29.6220  -48.6845  -56.3605 H         1 UNK         0.3005 
    107 H107       32.1891  -50.6243  -57.4070 H         1 UNK         0.1257 
    108 H108       32.1707  -49.7514  -59.6585 H         1 UNK         0.0775 
    109 H109       31.5285  -48.2175  -59.1651 H         1 UNK         0.0775 
    110 H110       34.6545  -46.2113  -59.2922 H         1 UNK         0.0840 
    111 H111       33.0939  -46.5305  -59.9895 H         1 UNK         0.0840 
    112 H112       32.1809  -47.9088  -56.5216 H         1 UNK         0.2987 
    113 H113       33.0122  -47.6873  -54.3472 H         1 UNK         0.0785 
    114 H114       31.1643  -46.7397  -52.8632 H         1 UNK         0.0798 
    115 H115       30.0894  -48.0074  -53.4464 H         1 UNK         0.0798 
    116 H116       30.7279  -46.8039  -54.5583 H         1 UNK         0.0798 
    117 H117       31.9592  -48.9256  -51.9792 H         1 UNK         0.3079 
    118 H118       33.0530  -50.7320  -50.8825 H         1 UNK         0.0794 
    119 H119       34.9172  -52.1010  -51.8351 H         1 UNK         0.0786 
    120 H120       35.2318  -51.6968  -50.1545 H         1 UNK         0.0786 
    121 H121       36.0755  -50.8369  -51.4403 H         1 UNK         0.0786 
    122 H122       35.0119  -48.4920  -50.6425 H         1 UNK         0.3032 
    123 H123       33.2123  -47.0840  -47.9885 H         1 UNK         0.1094 
    124 H124       34.8657  -48.4544  -46.7185 H         1 UNK         0.0794 
    125 H125       36.0990  -48.1307  -47.9286 H         1 UNK         0.0794 
    126 H126       35.4557  -46.8165  -46.9427 H         1 UNK         0.0794 
    127 H127       35.5436  -46.3272  -49.5363 H         1 UNK         0.3016 
@<TRIPOS>BOND
     1    1    2 1    
     2    1   67 1    
     3    1   68 1    
     4    1   69 1    
     5    2    3 2    
     6    2    4 am   BACKBONE|DICT|INTERRES
     7    4    5 1    
     8    4   70 1    
     9    5    6 1    
    10    5   65 1    
    11    5   71 1    
    12    6    7 1    
    13    6   72 1    
    14    6   73 1    
    15    7    8 1    
    16    8    9 1    
    17    8   74 1    
    18    8   75 1    
    19    9   10 ar   
    20    9   14 ar   
    21   10   11 ar   
    22   10   76 1    
    23   11   12 ar   
    24   11   48 1    
    25   12   13 ar   
    26   12   77 1    
    27   13   14 ar   
    28   13   15 1    
    29   14   78 1    
    30   15   16 1    
    31   15   79 1    
    32   15   80 1    
    33   16   17 1    
    34   17   18 1    
    35   17   81 1    
    36   17   82 1    
    37   18   19 1    
    38   18   22 1    
    39   18   83 1    
    40   19   20 am   BACKBONE|DICT|INTERRES
    41   19   21 2    
    42   20   84 1    
    43   20   85 1    
    44   22   23 am   BACKBONE|DICT|INTERRES
    45   22   86 1    
    46   23   24 2    
    47   23   25 1    
    48   25   26 1    
    49   25   27 1    
    50   25   87 1    
    51   26   88 1    
    52   26   89 1    
    53   26   90 1    
    54   27   28 am   BACKBONE|DICT|INTERRES
    55   27   91 1    
    56   28   29 2    
    57   28   30 1    
    58   30   31 1    
    59   30   32 1    
    60   30   92 1    
    61   31   93 1    
    62   31   94 1    
    63   31   95 1    
    64   32   33 am   BACKBONE|DICT|INTERRES
    65   32   96 1    
    66   33   34 2    
    67   33   35 1    
    68   35   36 1    
    69   35   37 1    
    70   35   97 1    
    71   36   98 1    
    72   36   99 1    
    73   36  100 1    
    74   37   38 am   BACKBONE|DICT|INTERRES
    75   37  101 1    
    76   38   39 2    
    77   38   40 1    
    78   40   41 1    
    79   40   42 1    
    80   40  102 1    
    81   41  103 1    
    82   41  104 1    
    83   41  105 1    
    84   42   43 am   BACKBONE|DICT|INTERRES
    85   42  106 1    
    86   43   44 2    
    87   43   45 1    
    88   45   46 1    
    89   45   49 1    
    90   45  107 1    
    91   46   47 1    
    92   46  108 1    
    93   46  109 1    
    94   47   48 1    
    95   48  110 1    
    96   48  111 1    
    97   49   50 am   BACKBONE|DICT|INTERRES
    98   49  112 1    
    99   50   51 2    
   100   50   52 1    
   101   52   53 1    
   102   52   54 1    
   103   52  113 1    
   104   53  114 1    
   105   53  115 1    
   106   53  116 1    
   107   54   55 am   BACKBONE|DICT|INTERRES
   108   54  117 1    
   109   55   56 2    
   110   55   57 1    
   111   57   58 1    
   112   57   59 1    
   113   57  118 1    
   114   58  119 1    
   115   58  120 1    
   116   58  121 1    
   117   59   60 am   BACKBONE|DICT|INTERRES
   118   59  122 1    
   119   60   61 2    
   120   60   62 1    
   121   62   63 1    
   122   62   64 1    
   123   62  123 1    
   124   63  124 1    
   125   63  125 1    
   126   63  126 1    
   127   64   65 am   BACKBONE|DICT|INTERRES
   128   64  127 1    
   129   65   66 2    
@<TRIPOS>SUBSTRUCTURE
     1 UNK         1 GROUP             0       ****    0 ROOT    
