@<TRIPOS>MOLECULE
3R134
127   129    1
SMALL
USER_CHARGES


@<TRIPOS>ATOM
      1 CA         37.0469  -43.0645  -51.6112 C.3       0 UNK        -0.1968 
      2 C          36.1116  -43.4049  -52.7623 C.2       0 UNK         0.4852 
      3 O          36.3720  -43.0070  -53.8992 O.2       0 UNK        -0.5359 
      4 N          35.0228  -44.1290  -52.4740 N.am      1 UNK        -0.4300 
      5 CA         34.0325  -44.5898  -53.4549 C.3       1 UNK         0.0863 
      6 C6         32.6865  -44.9933  -52.7959 C.3       11 UNK        -0.0953 
      7 S7         32.1169  -43.8640  -51.4785 S.3       11 UNK        -0.2369 
      8 C8         31.4280  -42.4731  -52.4380 C.3       11 UNK         0.0226 
      9 C9         30.1214  -42.7672  -53.1749 C.ar      11 UNK        -0.0699 
     10 C10        29.1856  -43.6940  -52.6942 C.ar      11 UNK        -0.0804 
     11 C11        27.9819  -43.9195  -53.3758 C.ar      11 UNK        -0.0871 
     12 C12        27.7092  -43.1757  -54.5272 C.ar      11 UNK        -0.1008 
     13 C13        28.6206  -42.2347  -55.0099 C.ar      11 UNK        -0.0735 
     14 C14        29.8287  -42.0435  -54.3354 C.ar      11 UNK        -0.0945 
     15 C15        28.2701  -41.3936  -56.2298 C.3       11 UNK         0.0169 
     16 S16        28.1883  -42.3790  -57.7569 S.3       11 UNK        -0.2669 
     17 C17        29.9560  -42.5644  -58.1648 C.3       11 UNK        -0.0850 
     18 CA         30.2251  -43.8515  -58.9965 C.3       10 UNK         0.0855 
     19 C          31.6275  -43.8678  -59.6773 C.2       10 UNK         0.5543 
     20 N          32.1244  -45.0245  -60.0975 N.am      10 UNK        -0.7343 
     21 O          32.2598  -42.8298  -59.8589 O.2       10 UNK        -0.5027 
     22 N          29.8953  -45.0895  -58.2653 N.am      10 UNK        -0.4495 
     23 C          30.5160  -45.5479  -57.1694 C.2       10 UNK         0.4903 
     24 O          31.4686  -44.9794  -56.6294 O.2       10 UNK        -0.4860 
     25 CA         30.0439  -46.8993  -56.5977 C.3       9 UNK         0.0227 
     26 CB         29.9828  -46.8643  -55.0619 C.3       9 UNK        -0.1964 
     27 N          28.7921  -47.4301  -57.1570 N.am      9 UNK        -0.4231 
     28 C          27.5478  -46.9553  -57.0087 C.2       9 UNK         0.5014 
     29 O          27.2688  -45.9236  -56.4025 O.2       9 UNK        -0.5270 
     30 CA         26.4037  -47.7751  -57.6313 C.3       8 UNK         0.0284 
     31 CB         26.2557  -47.4731  -59.1357 C.3       8 UNK        -0.1977 
     32 N          26.4671  -49.2209  -57.3654 N.am      8 UNK        -0.4342 
     33 C          27.3561  -50.1272  -57.8009 C.2       8 UNK         0.5039 
     34 O          28.3171  -49.8413  -58.5184 O.2       8 UNK        -0.5547 
     35 CA         27.1526  -51.5823  -57.3342 C.3       7 UNK         0.0281 
     36 CB         28.4620  -52.3929  -57.3707 C.3       7 UNK        -0.1963 
     37 N          26.6206  -51.6113  -55.9716 N.am      7 UNK        -0.4444 
     38 C          25.3804  -51.9738  -55.6144 C.2       7 UNK         0.5104 
     39 O          24.5413  -52.4080  -56.4035 O.2       7 UNK        -0.5100 
     40 CA         24.9912  -51.7921  -54.1307 C.3       6 UNK         0.0396 
     41 CB         25.1298  -53.1236  -53.3760 C.3       6 UNK        -0.1801 
     42 N          25.7780  -50.7647  -53.4394 N.am      6 UNK        -0.4747 
     43 C          25.7947  -49.4619  -53.7601 C.2       6 UNK         0.5012 
     44 O          25.0257  -48.9604  -54.5809 O.2       6 UNK        -0.5003 
     45 CA         26.9017  -48.5840  -53.1362 C.3       5 UNK         0.0782 
     46 C46        26.3265  -47.5593  -52.1312 C.3       11 UNK        -0.0868 
     47 S47        27.5461  -46.2450  -51.7938 S.3       11 UNK        -0.2515 
     48 C48        26.9359  -44.9349  -52.9122 C.3       11 UNK         0.0199 
     49 N          28.0267  -49.3417  -52.5610 N.am      5 UNK        -0.4607 
     50 C          28.8579  -50.1218  -53.2609 C.2       4 UNK         0.5031 
     51 O          28.6973  -50.3832  -54.4550 O.2       4 UNK        -0.5119 
     52 CA         30.0451  -50.7415  -52.5079 C.3       4 UNK         0.0263 
     53 CB         29.6852  -52.1511  -52.0119 C.3       4 UNK        -0.1967 
     54 N          31.1950  -50.8236  -53.4090 N.am      4 UNK        -0.4237 
     55 C          31.9318  -49.7642  -53.7648 C.2       3 UNK         0.4908 
     56 O          31.9036  -48.6815  -53.1731 O.2       3 UNK        -0.5102 
     57 CA         32.8101  -49.9282  -55.0135 C.3       3 UNK         0.0241 
     58 CB         32.0237  -50.5491  -56.1917 C.3       3 UNK        -0.1971 
     59 N          33.3197  -48.6119  -55.3890 N.am      3 UNK        -0.4139 
     60 C          34.3526  -48.3640  -56.1996 C.2       2 UNK         0.5016 
     61 O          35.0289  -49.2451  -56.7327 O.2       2 UNK        -0.5319 
     62 CA         34.6883  -46.8890  -56.4884 C.3       2 UNK         0.0286 
     63 CB         34.2336  -46.5126  -57.9061 C.3       2 UNK        -0.1963 
     64 N          34.1215  -45.9306  -55.5280 N.am      2 UNK        -0.4790 
     65 C          34.6140  -45.7503  -54.2941 C.2       1 UNK         0.5024 
     66 O          35.4986  -46.4659  -53.8152 O.2       1 UNK        -0.4888 
     67 H67        36.6875  -43.4625  -50.6623 H         1 UNK         0.0892 
     68 H68        37.1410  -41.9835  -51.5110 H         1 UNK         0.0892 
     69 H69        38.0377  -43.4776  -51.7985 H         1 UNK         0.0892 
     70 H70        34.8651  -44.4385  -51.5260 H         1 UNK         0.3107 
     71 H71        33.8342  -43.7584  -54.1350 H         1 UNK         0.0773 
     72 H72        32.7514  -45.9908  -52.3560 H         1 UNK         0.0680 
     73 H73        31.9065  -45.0419  -53.5544 H         1 UNK         0.0680 
     74 H74        31.2491  -41.6444  -51.7521 H         1 UNK         0.0650 
     75 H75        32.1892  -42.1305  -53.1405 H         1 UNK         0.0650 
     76 H76        29.3968  -44.2375  -51.7853 H         1 UNK         0.1397 
     77 H77        26.7802  -43.3316  -55.0593 H         1 UNK         0.1363 
     78 H78        30.5341  -41.3102  -54.7016 H         1 UNK         0.1355 
     79 H79        28.9799  -40.5755  -56.3625 H         1 UNK         0.0707 
     80 H80        27.2976  -40.9274  -56.0655 H         1 UNK         0.0707 
     81 H81        30.5544  -42.5649  -57.2527 H         1 UNK         0.1034 
     82 H82        30.2503  -41.6721  -58.7199 H         1 UNK         0.1034 
     83 H83        29.5335  -43.8272  -59.8394 H         1 UNK         0.0482 
     84 H84        33.0229  -45.0381  -60.5527 H         1 UNK         0.3460 
     85 H85        31.6041  -45.8780  -59.9772 H         1 UNK         0.3460 
     86 H86        29.1243  -45.6261  -58.6321 H         1 UNK         0.2989 
     87 H87        30.8127  -47.6201  -56.8770 H         1 UNK         0.0559 
     88 H88        29.6259  -47.8073  -54.6590 H         1 UNK         0.0848 
     89 H89        29.3316  -46.0705  -54.6962 H         1 UNK         0.0848 
     90 H90        30.9708  -46.6955  -54.6422 H         1 UNK         0.0848 
     91 H91        28.8721  -48.2938  -57.6943 H         1 UNK         0.3144 
     92 H92        25.4870  -47.4381  -57.1442 H         1 UNK         0.0727 
     93 H93        25.3925  -47.9868  -59.5589 H         1 UNK         0.0790 
     94 H94        27.1358  -47.7731  -59.7049 H         1 UNK         0.0790 
     95 H95        26.1110  -46.4050  -59.3038 H         1 UNK         0.0790 
     96 H96        25.7582  -49.5528  -56.7230 H         1 UNK         0.3215 
     97 H97        26.4483  -52.0424  -58.0302 H         1 UNK         0.0863 
     98 H98        28.3029  -53.4176  -57.0351 H         1 UNK         0.0808 
     99 H99        29.2269  -51.9465  -56.7343 H         1 UNK         0.0808 
    100 H100       28.8661  -52.4435  -58.3826 H         1 UNK         0.0808 
    101 H101       27.2478  -51.2322  -55.2639 H         1 UNK         0.3118 
    102 H102       23.9431  -51.4872  -54.1003 H         1 UNK         0.0546 
    103 H103       24.5326  -53.9042  -53.8496 H         1 UNK         0.0828 
    104 H104       24.7842  -53.0352  -52.3460 H         1 UNK         0.0828 
    105 H105       26.1634  -53.4718  -53.3566 H         1 UNK         0.0828 
    106 H106       26.4453  -51.0884  -52.7542 H         1 UNK         0.3005 
    107 H107       27.3055  -48.0207  -53.9811 H         1 UNK         0.1257 
    108 H108       26.0599  -48.0469  -51.1918 H         1 UNK         0.0775 
    109 H109       25.4072  -47.1034  -52.5049 H         1 UNK         0.0775 
    110 H110       26.5092  -45.4112  -53.7967 H         1 UNK         0.0840 
    111 H111       26.1192  -44.4047  -52.4208 H         1 UNK         0.0840 
    112 H112       28.2181  -49.1710  -51.5840 H         1 UNK         0.2987 
    113 H113       30.3009  -50.1146  -51.6508 H         1 UNK         0.0785 
    114 H114       29.3980  -52.8094  -52.8332 H         1 UNK         0.0798 
    115 H115       28.8489  -52.1182  -51.3124 H         1 UNK         0.0798 
    116 H116       30.5236  -52.6129  -51.4899 H         1 UNK         0.0798 
    117 H117       31.2573  -51.6594  -53.9715 H         1 UNK         0.3079 
    118 H118       33.6528  -50.5711  -54.7516 H         1 UNK         0.0794 
    119 H119       31.1010  -50.0026  -56.3929 H         1 UNK         0.0786 
    120 H120       31.7503  -51.5844  -55.9878 H         1 UNK         0.0786 
    121 H121       32.6101  -50.5583  -57.1104 H         1 UNK         0.0786 
    122 H122       32.8680  -47.8404  -54.9147 H         1 UNK         0.3032 
    123 H123       35.7767  -46.7987  -56.4526 H         1 UNK         0.1094 
    124 H124       33.1627  -46.6655  -58.0350 H         1 UNK         0.0794 
    125 H125       34.4569  -45.4707  -58.1365 H         1 UNK         0.0794 
    126 H126       34.7389  -47.1258  -58.6534 H         1 UNK         0.0794 
    127 H127       33.3486  -45.3583  -55.8572 H         1 UNK         0.3016 
@<TRIPOS>BOND
     1    1    2 1    
     2    1   67 1    
     3    1   68 1    
     4    1   69 1    
     5    2    3 2    
     6    2    4 am   BACKBONE|DICT|INTERRES
     7    4    5 1    
     8    4   70 1    
     9    5    6 1    
    10    5   65 1    
    11    5   71 1    
    12    6    7 1    
    13    6   72 1    
    14    6   73 1    
    15    7    8 1    
    16    8    9 1    
    17    8   74 1    
    18    8   75 1    
    19    9   10 ar   
    20    9   14 ar   
    21   10   11 ar   
    22   10   76 1    
    23   11   12 ar   
    24   11   48 1    
    25   12   13 ar   
    26   12   77 1    
    27   13   14 ar   
    28   13   15 1    
    29   14   78 1    
    30   15   16 1    
    31   15   79 1    
    32   15   80 1    
    33   16   17 1    
    34   17   18 1    
    35   17   81 1    
    36   17   82 1    
    37   18   19 1    
    38   18   22 1    
    39   18   83 1    
    40   19   20 am   BACKBONE|DICT|INTERRES
    41   19   21 2    
    42   20   84 1    
    43   20   85 1    
    44   22   23 am   BACKBONE|DICT|INTERRES
    45   22   86 1    
    46   23   24 2    
    47   23   25 1    
    48   25   26 1    
    49   25   27 1    
    50   25   87 1    
    51   26   88 1    
    52   26   89 1    
    53   26   90 1    
    54   27   28 am   BACKBONE|DICT|INTERRES
    55   27   91 1    
    56   28   29 2    
    57   28   30 1    
    58   30   31 1    
    59   30   32 1    
    60   30   92 1    
    61   31   93 1    
    62   31   94 1    
    63   31   95 1    
    64   32   33 am   BACKBONE|DICT|INTERRES
    65   32   96 1    
    66   33   34 2    
    67   33   35 1    
    68   35   36 1    
    69   35   37 1    
    70   35   97 1    
    71   36   98 1    
    72   36   99 1    
    73   36  100 1    
    74   37   38 am   BACKBONE|DICT|INTERRES
    75   37  101 1    
    76   38   39 2    
    77   38   40 1    
    78   40   41 1    
    79   40   42 1    
    80   40  102 1    
    81   41  103 1    
    82   41  104 1    
    83   41  105 1    
    84   42   43 am   BACKBONE|DICT|INTERRES
    85   42  106 1    
    86   43   44 2    
    87   43   45 1    
    88   45   46 1    
    89   45   49 1    
    90   45  107 1    
    91   46   47 1    
    92   46  108 1    
    93   46  109 1    
    94   47   48 1    
    95   48  110 1    
    96   48  111 1    
    97   49   50 am   BACKBONE|DICT|INTERRES
    98   49  112 1    
    99   50   51 2    
   100   50   52 1    
   101   52   53 1    
   102   52   54 1    
   103   52  113 1    
   104   53  114 1    
   105   53  115 1    
   106   53  116 1    
   107   54   55 am   BACKBONE|DICT|INTERRES
   108   54  117 1    
   109   55   56 2    
   110   55   57 1    
   111   57   58 1    
   112   57   59 1    
   113   57  118 1    
   114   58  119 1    
   115   58  120 1    
   116   58  121 1    
   117   59   60 am   BACKBONE|DICT|INTERRES
   118   59  122 1    
   119   60   61 2    
   120   60   62 1    
   121   62   63 1    
   122   62   64 1    
   123   62  123 1    
   124   63  124 1    
   125   63  125 1    
   126   63  126 1    
   127   64   65 am   BACKBONE|DICT|INTERRES
   128   64  127 1    
   129   65   66 2    
@<TRIPOS>SUBSTRUCTURE
     1 UNK         1 GROUP             0       ****    0 ROOT    
