@<TRIPOS>MOLECULE
3R134
127   129    1
SMALL
USER_CHARGES


@<TRIPOS>ATOM
      1 CA         31.5227  -45.7914  -46.8445 C.3       0 UNK        -0.1968 
      2 C          32.5305  -45.6245  -47.9726 C.2       0 UNK         0.4852 
      3 O          33.6512  -45.1735  -47.7285 O.2       0 UNK        -0.5359 
      4 N          32.1375  -45.9755  -49.2037 N.am      1 UNK        -0.4300 
      5 CA         32.9834  -45.9292  -50.4012 C.3       1 UNK         0.0863 
      6 C6         32.1458  -46.0042  -51.6999 C.3       11 UNK        -0.0953 
      7 S7         31.0251  -44.5716  -51.8605 S.3       11 UNK        -0.2369 
      8 C8         31.9623  -43.4845  -52.9793 C.3       11 UNK         0.0226 
      9 C9         31.8065  -43.8695  -54.4457 C.ar      11 UNK        -0.0699 
     10 C10        32.7850  -44.6361  -55.0866 C.ar      11 UNK        -0.0804 
     11 C11        32.6817  -44.9269  -56.4509 C.ar      11 UNK        -0.0871 
     12 C12        31.5896  -44.4450  -57.1766 C.ar      11 UNK        -0.1008 
     13 C13        30.6074  -43.6720  -56.5500 C.ar      11 UNK        -0.0735 
     14 C14        30.7140  -43.3988  -55.1821 C.ar      11 UNK        -0.0945 
     15 C15        29.4709  -43.0799  -57.3698 C.3       11 UNK         0.0169 
     16 S16        28.3135  -44.3557  -57.9444 S.3       11 UNK        -0.2669 
     17 C17        27.1698  -43.3487  -58.9535 C.3       11 UNK        -0.0850 
     18 CA         25.8428  -43.0209  -58.2208 C.3       10 UNK         0.0855 
     19 C          24.9156  -42.1802  -59.1412 C.2       10 UNK         0.5543 
     20 N          24.8919  -40.8662  -58.9656 N.am      10 UNK        -0.7343 
     21 O          24.2628  -42.7034  -60.0419 O.2       10 UNK        -0.5027 
     22 N          25.2206  -44.2517  -57.7197 N.am      10 UNK        -0.4495 
     23 C          24.0600  -44.3829  -57.0673 C.2       10 UNK         0.4903 
     24 O          23.3226  -43.4416  -56.7714 O.2       10 UNK        -0.4860 
     25 CA         23.6892  -45.8121  -56.6216 C.3       9 UNK         0.0227 
     26 CB         22.1704  -46.0821  -56.6773 C.3       9 UNK        -0.1964 
     27 N          24.4596  -46.8609  -57.3087 N.am      9 UNK        -0.4231 
     28 C          24.3772  -47.2367  -58.5977 C.2       9 UNK         0.5014 
     29 O          23.5730  -46.7609  -59.3994 O.2       9 UNK        -0.5270 
     30 CA         25.3774  -48.2988  -59.1048 C.3       8 UNK         0.0284 
     31 CB         26.3962  -47.6569  -60.0623 C.3       8 UNK        -0.1977 
     32 N          26.1097  -48.9829  -58.0373 N.am      8 UNK        -0.4342 
     33 C          25.5720  -49.8352  -57.1529 C.2       8 UNK         0.5039 
     34 O          24.4170  -50.2555  -57.2292 O.2       8 UNK        -0.5547 
     35 CA         26.4467  -50.2577  -55.9563 C.3       7 UNK         0.0281 
     36 CB         26.8857  -51.7230  -56.1048 C.3       7 UNK        -0.1963 
     37 N          27.6245  -49.4043  -55.7368 N.am      7 UNK        -0.4444 
     38 C          27.5791  -48.0986  -55.4187 C.2       7 UNK         0.5104 
     39 O          26.5235  -47.4805  -55.2730 O.2       7 UNK        -0.5100 
     40 CA         28.9095  -47.3340  -55.2726 C.3       6 UNK         0.0396 
     41 CB         29.2341  -47.1111  -53.7932 C.3       6 UNK        -0.1801 
     42 N          30.0610  -47.9764  -55.9067 N.am      6 UNK        -0.4747 
     43 C          30.2015  -48.2064  -57.2192 C.2       6 UNK         0.5012 
     44 O          29.3698  -47.8728  -58.0644 O.2       6 UNK        -0.5003 
     45 CA         31.4384  -49.0238  -57.6532 C.3       5 UNK         0.0782 
     46 C46        32.5933  -48.1078  -58.1414 C.3       11 UNK        -0.0868 
     47 S47        33.6778  -47.4888  -56.8028 S.3       11 UNK        -0.2515 
     48 C48        33.7849  -45.7081  -57.1469 C.3       11 UNK         0.0199 
     49 N          31.8968  -49.9941  -56.6458 N.am      5 UNK        -0.4607 
     50 C          31.1566  -50.9343  -56.0444 C.2       4 UNK         0.5031 
     51 O          29.9763  -51.1376  -56.3228 O.2       4 UNK        -0.5119 
     52 CA         31.8099  -51.7769  -54.9316 C.3       4 UNK         0.0263 
     53 CB         31.8016  -53.2677  -55.3107 C.3       4 UNK        -0.1967 
     54 N          33.1782  -51.3893  -54.5686 N.am      4 UNK        -0.4237 
     55 C          33.5413  -50.2651  -53.9361 C.2       3 UNK         0.4908 
     56 O          32.7630  -49.3572  -53.6315 O.2       3 UNK        -0.5102 
     57 CA         35.0347  -50.1475  -53.6075 C.3       3 UNK         0.0241 
     58 CB         35.8957  -49.9941  -54.8771 C.3       3 UNK        -0.1971 
     59 N          35.2650  -49.0125  -52.7179 N.am      3 UNK        -0.4139 
     60 C          36.2692  -48.9200  -51.8387 C.2       2 UNK         0.5016 
     61 O          37.1130  -49.8037  -51.6772 O.2       2 UNK        -0.5319 
     62 CA         36.3861  -47.6291  -51.0061 C.3       2 UNK         0.0286 
     63 CB         37.5922  -46.7987  -51.4780 C.3       2 UNK        -0.1963 
     64 N          35.1961  -46.7714  -51.0155 N.am      2 UNK        -0.4790 
     65 C          34.0544  -47.0392  -50.3680 C.2       1 UNK         0.5024 
     66 O          33.8363  -48.0998  -49.7769 O.2       1 UNK        -0.4888 
     67 H67        30.5712  -46.1848  -47.2023 H         1 UNK         0.0892 
     68 H68        31.9119  -46.4776  -46.0927 H         1 UNK         0.0892 
     69 H69        31.3334  -44.8313  -46.3652 H         1 UNK         0.0892 
     70 H70        31.2101  -46.3497  -49.3422 H         1 UNK         0.3107 
     71 H71        33.5082  -44.9709  -50.3929 H         1 UNK         0.0773 
     72 H72        32.7869  -46.0570  -52.5805 H         1 UNK         0.0680 
     73 H73        31.5466  -46.9165  -51.7133 H         1 UNK         0.0680 
     74 H74        33.0145  -43.4812  -52.6907 H         1 UNK         0.0650 
     75 H75        31.6110  -42.4614  -52.8377 H         1 UNK         0.0650 
     76 H76        33.6430  -44.9892  -54.5317 H         1 UNK         0.1397 
     77 H77        31.5106  -44.6509  -58.2354 H         1 UNK         0.1363 
     78 H78        29.9638  -42.7918  -54.6939 H         1 UNK         0.1355 
     79 H79        28.9218  -42.3358  -56.7905 H         1 UNK         0.0707 
     80 H80        29.8906  -42.5564  -58.2303 H         1 UNK         0.0707 
     81 H81        27.6708  -42.4304  -59.2660 H         1 UNK         0.1034 
     82 H82        26.9665  -43.9021  -59.8729 H         1 UNK         0.1034 
     83 H83        26.0822  -42.4207  -57.3408 H         1 UNK         0.0482 
     84 H84        25.4320  -40.4266  -58.2364 H         1 UNK         0.3460 
     85 H85        24.3100  -40.3022  -59.5654 H         1 UNK         0.3460 
     86 H86        25.7533  -45.0911  -57.8879 H         1 UNK         0.2989 
     87 H87        23.9885  -45.8779  -55.5746 H         1 UNK         0.0559 
     88 H88        21.7664  -45.9346  -57.6791 H         1 UNK         0.0848 
     89 H89        21.6302  -45.4079  -56.0117 H         1 UNK         0.0848 
     90 H90        21.9356  -47.0997  -56.3656 H         1 UNK         0.0848 
     91 H91        25.1762  -47.2936  -56.7318 H         1 UNK         0.3144 
     92 H92        24.8054  -49.0464  -59.6583 H         1 UNK         0.0727 
     93 H93        27.0104  -46.9096  -59.5573 H         1 UNK         0.0790 
     94 H94        25.8953  -47.1595  -60.8941 H         1 UNK         0.0790 
     95 H95        27.0652  -48.4042  -60.4896 H         1 UNK         0.0790 
     96 H96        27.0758  -48.7092  -57.9065 H         1 UNK         0.3215 
     97 H97        25.8216  -50.1811  -55.0641 H         1 UNK         0.0863 
     98 H98        27.4704  -52.0539  -55.2462 H         1 UNK         0.0808 
     99 H99        27.4888  -51.8732  -57.0010 H         1 UNK         0.0808 
    100 H100       26.0212  -52.3839  -56.1813 H         1 UNK         0.0808 
    101 H101       28.5296  -49.8471  -55.8706 H         1 UNK         0.3118 
    102 H102       28.7797  -46.3576  -55.7423 H         1 UNK         0.0546 
    103 H103       28.4397  -46.5564  -53.2923 H         1 UNK         0.0828 
    104 H104       30.1485  -46.5301  -53.6970 H         1 UNK         0.0828 
    105 H105       29.3730  -48.0515  -53.2585 H         1 UNK         0.0828 
    106 H106       30.8013  -48.2915  -55.2939 H         1 UNK         0.3005 
    107 H107       31.1042  -49.6129  -58.5102 H         1 UNK         0.1257 
    108 H108       32.2099  -47.2749  -58.7344 H         1 UNK         0.0775 
    109 H109       33.2291  -48.6749  -58.8230 H         1 UNK         0.0775 
    110 H110       34.7522  -45.3467  -56.7949 H         1 UNK         0.0840 
    111 H111       33.7762  -45.5314  -58.2236 H         1 UNK         0.0840 
    112 H112       32.8477  -49.8668  -56.3319 H         1 UNK         0.2987 
    113 H113       31.1868  -51.6506  -54.0437 H         1 UNK         0.0785 
    114 H114       30.7907  -53.6106  -55.5366 H         1 UNK         0.0798 
    115 H115       32.1735  -53.8881  -54.4951 H         1 UNK         0.0798 
    116 H116       32.4153  -53.4634  -56.1909 H         1 UNK         0.0798 
    117 H117       33.8974  -52.0633  -54.7903 H         1 UNK         0.3079 
    118 H118       35.3191  -51.0674  -53.0917 H         1 UNK         0.0794 
    119 H119       35.6986  -49.0506  -55.3847 H         1 UNK         0.0786 
    120 H120       35.7127  -50.7971  -55.5918 H         1 UNK         0.0786 
    121 H121       36.9585  -50.0201  -54.6357 H         1 UNK         0.0786 
    122 H122       34.5598  -48.2883  -52.7547 H         1 UNK         0.3032 
    123 H123       36.5700  -47.9384  -49.9743 H         1 UNK         0.1094 
    124 H124       37.4653  -46.4493  -52.5035 H         1 UNK         0.0794 
    125 H125       37.7498  -45.9277  -50.8414 H         1 UNK         0.0794 
    126 H126       38.5102  -47.3877  -51.4468 H         1 UNK         0.0794 
    127 H127       35.2908  -45.8833  -51.4878 H         1 UNK         0.3016 
@<TRIPOS>BOND
     1    1    2 1    
     2    1   67 1    
     3    1   68 1    
     4    1   69 1    
     5    2    3 2    
     6    2    4 am   BACKBONE|DICT|INTERRES
     7    4    5 1    
     8    4   70 1    
     9    5    6 1    
    10    5   65 1    
    11    5   71 1    
    12    6    7 1    
    13    6   72 1    
    14    6   73 1    
    15    7    8 1    
    16    8    9 1    
    17    8   74 1    
    18    8   75 1    
    19    9   10 ar   
    20    9   14 ar   
    21   10   11 ar   
    22   10   76 1    
    23   11   12 ar   
    24   11   48 1    
    25   12   13 ar   
    26   12   77 1    
    27   13   14 ar   
    28   13   15 1    
    29   14   78 1    
    30   15   16 1    
    31   15   79 1    
    32   15   80 1    
    33   16   17 1    
    34   17   18 1    
    35   17   81 1    
    36   17   82 1    
    37   18   19 1    
    38   18   22 1    
    39   18   83 1    
    40   19   20 am   BACKBONE|DICT|INTERRES
    41   19   21 2    
    42   20   84 1    
    43   20   85 1    
    44   22   23 am   BACKBONE|DICT|INTERRES
    45   22   86 1    
    46   23   24 2    
    47   23   25 1    
    48   25   26 1    
    49   25   27 1    
    50   25   87 1    
    51   26   88 1    
    52   26   89 1    
    53   26   90 1    
    54   27   28 am   BACKBONE|DICT|INTERRES
    55   27   91 1    
    56   28   29 2    
    57   28   30 1    
    58   30   31 1    
    59   30   32 1    
    60   30   92 1    
    61   31   93 1    
    62   31   94 1    
    63   31   95 1    
    64   32   33 am   BACKBONE|DICT|INTERRES
    65   32   96 1    
    66   33   34 2    
    67   33   35 1    
    68   35   36 1    
    69   35   37 1    
    70   35   97 1    
    71   36   98 1    
    72   36   99 1    
    73   36  100 1    
    74   37   38 am   BACKBONE|DICT|INTERRES
    75   37  101 1    
    76   38   39 2    
    77   38   40 1    
    78   40   41 1    
    79   40   42 1    
    80   40  102 1    
    81   41  103 1    
    82   41  104 1    
    83   41  105 1    
    84   42   43 am   BACKBONE|DICT|INTERRES
    85   42  106 1    
    86   43   44 2    
    87   43   45 1    
    88   45   46 1    
    89   45   49 1    
    90   45  107 1    
    91   46   47 1    
    92   46  108 1    
    93   46  109 1    
    94   47   48 1    
    95   48  110 1    
    96   48  111 1    
    97   49   50 am   BACKBONE|DICT|INTERRES
    98   49  112 1    
    99   50   51 2    
   100   50   52 1    
   101   52   53 1    
   102   52   54 1    
   103   52  113 1    
   104   53  114 1    
   105   53  115 1    
   106   53  116 1    
   107   54   55 am   BACKBONE|DICT|INTERRES
   108   54  117 1    
   109   55   56 2    
   110   55   57 1    
   111   57   58 1    
   112   57   59 1    
   113   57  118 1    
   114   58  119 1    
   115   58  120 1    
   116   58  121 1    
   117   59   60 am   BACKBONE|DICT|INTERRES
   118   59  122 1    
   119   60   61 2    
   120   60   62 1    
   121   62   63 1    
   122   62   64 1    
   123   62  123 1    
   124   63  124 1    
   125   63  125 1    
   126   63  126 1    
   127   64   65 am   BACKBONE|DICT|INTERRES
   128   64  127 1    
   129   65   66 2    
@<TRIPOS>SUBSTRUCTURE
     1 UNK         1 GROUP             0       ****    0 ROOT    
