@<TRIPOS>MOLECULE
3R134
127   129    1
SMALL
USER_CHARGES


@<TRIPOS>ATOM
      1 CA         37.9124  -43.4817  -54.2027 C.3       0 UNK        -0.1968 
      2 C          36.9552  -44.5148  -54.7779 C.2       0 UNK         0.4852 
      3 O          37.3163  -45.2320  -55.7133 O.2       0 UNK        -0.5359 
      4 N          35.7392  -44.6061  -54.2234 N.am      1 UNK        -0.4300 
      5 CA         34.6783  -45.5323  -54.6402 C.3       1 UNK         0.0863 
      6 C6         33.2681  -44.9939  -54.2886 C.3       11 UNK        -0.0953 
      7 S7         32.9393  -43.3865  -55.0879 S.3       11 UNK        -0.2369 
      8 C8         32.5028  -42.3438  -53.6611 C.3       11 UNK         0.0226 
      9 C9         31.0969  -42.6481  -53.1675 C.ar      11 UNK        -0.0699 
     10 C10        30.8910  -43.3420  -51.9711 C.ar      11 UNK        -0.0804 
     11 C11        29.5937  -43.6309  -51.5352 C.ar      11 UNK        -0.0871 
     12 C12        28.5007  -43.2213  -52.3055 C.ar      11 UNK        -0.1008 
     13 C13        28.6969  -42.5472  -53.5127 C.ar      11 UNK        -0.0735 
     14 C14        29.9961  -42.2430  -53.9263 C.ar      11 UNK        -0.0945 
     15 C15        27.5063  -42.1791  -54.3851 C.3       11 UNK         0.0169 
     16 S16        26.8788  -43.6314  -55.2896 S.3       11 UNK        -0.2669 
     17 C17        28.2985  -44.0480  -56.3645 C.3       11 UNK        -0.0850 
     18 CA         27.8849  -44.2795  -57.8389 C.3       10 UNK         0.0855 
     19 C          29.1368  -44.3831  -58.7622 C.2       10 UNK         0.5543 
     20 N          29.3694  -45.4809  -59.4730 N.am      10 UNK        -0.7343 
     21 O          29.9115  -43.4335  -58.8442 O.2       10 UNK        -0.5027 
     22 N          26.9449  -45.4027  -57.9609 N.am      10 UNK        -0.4495 
     23 C          26.1176  -45.5940  -58.9964 C.2       10 UNK         0.4903 
     24 O          25.9706  -44.7826  -59.9121 O.2       10 UNK        -0.4860 
     25 CA         25.3372  -46.9242  -59.0151 C.3       9 UNK         0.0227 
     26 CB         24.8419  -47.3074  -60.4258 C.3       9 UNK        -0.1964 
     27 N          26.0769  -48.0380  -58.4050 N.am      9 UNK        -0.4231 
     28 C          27.2808  -48.5128  -58.7707 C.2       9 UNK         0.5014 
     29 O          27.9203  -48.0675  -59.7247 O.2       9 UNK        -0.5270 
     30 CA         27.9059  -49.6347  -57.9180 C.3       8 UNK         0.0284 
     31 CB         29.3659  -49.3010  -57.5571 C.3       8 UNK        -0.1977 
     32 N          27.1469  -49.8749  -56.6868 N.am      8 UNK        -0.4342 
     33 C          26.2181  -50.8316  -56.5360 C.2       8 UNK         0.5039 
     34 O          25.9811  -51.6908  -57.3854 O.2       8 UNK        -0.5547 
     35 CA         25.3788  -50.8180  -55.2418 C.3       7 UNK         0.0281 
     36 CB         25.8813  -51.8810  -54.2523 C.3       7 UNK        -0.1963 
     37 N          25.3327  -49.5116  -54.5761 N.am      7 UNK        -0.4444 
     38 C          24.7546  -48.4154  -55.0877 C.2       7 UNK         0.5104 
     39 O          24.1544  -48.4037  -56.1617 O.2       7 UNK        -0.5100 
     40 CA         24.9294  -47.0976  -54.3110 C.3       6 UNK         0.0396 
     41 CB         23.7109  -46.8376  -53.4126 C.3       6 UNK        -0.1801 
     42 N          26.1544  -47.0267  -53.5038 N.am      6 UNK        -0.4747 
     43 C          27.4053  -47.1154  -53.9833 C.2       6 UNK         0.5012 
     44 O          27.6440  -47.3358  -55.1737 O.2       6 UNK        -0.5003 
     45 CA         28.5732  -46.9692  -52.9787 C.3       5 UNK         0.0782 
     46 C46        28.1264  -46.5822  -51.5412 C.3       11 UNK        -0.0868 
     47 S47        29.5498  -46.1919  -50.4668 S.3       11 UNK        -0.2515 
     48 C48        29.3737  -44.3929  -50.2368 C.3       11 UNK         0.0199 
     49 N          29.3403  -48.2164  -52.9664 N.am      5 UNK        -0.4607 
     50 C          30.3249  -48.5314  -53.8133 C.2       4 UNK         0.5031 
     51 O          30.7797  -47.7644  -54.6662 O.2       4 UNK        -0.5119 
     52 CA         30.8793  -49.9591  -53.6941 C.3       4 UNK         0.0263 
     53 CB         29.7651  -51.0034  -53.9383 C.3       4 UNK        -0.1967 
     54 N          31.9702  -50.0890  -54.6563 N.am      4 UNK        -0.4237 
     55 C          32.7630  -51.1457  -54.8652 C.2       3 UNK         0.4908 
     56 O          32.6604  -52.2233  -54.2781 O.2       3 UNK        -0.5102 
     57 CA         33.8894  -50.9468  -55.8926 C.3       3 UNK         0.0241 
     58 CB         33.3356  -50.5781  -57.2817 C.3       3 UNK        -0.1971 
     59 N          34.8463  -49.9294  -55.4509 N.am      3 UNK        -0.4139 
     60 C          35.6718  -50.0597  -54.4015 C.2       2 UNK         0.5016 
     61 O          35.7737  -51.0879  -53.7310 O.2       2 UNK        -0.5319 
     62 CA         36.5491  -48.8491  -54.0360 C.3       2 UNK         0.0286 
     63 CB         37.9805  -49.0429  -54.5629 C.3       2 UNK        -0.1963 
     64 N          36.0385  -47.5611  -54.5148 N.am      2 UNK        -0.4790 
     65 C          34.9411  -46.9399  -54.0622 C.2       1 UNK         0.5024 
     66 O          34.1922  -47.4191  -53.2097 O.2       1 UNK        -0.4888 
     67 H67        38.8074  -43.9719  -53.8208 H         1 UNK         0.0892 
     68 H68        38.2134  -42.7777  -54.9779 H         1 UNK         0.0892 
     69 H69        37.4610  -42.9159  -53.3880 H         1 UNK         0.0892 
     70 H70        35.5067  -44.0069  -53.4449 H         1 UNK         0.3107 
     71 H71        34.7173  -45.6319  -55.7275 H         1 UNK         0.0773 
     72 H72        32.4983  -45.6902  -54.6249 H         1 UNK         0.0680 
     73 H73        33.1467  -44.9061  -53.2078 H         1 UNK         0.0680 
     74 H74        32.5584  -41.2965  -53.9615 H         1 UNK         0.0650 
     75 H75        33.2389  -42.4740  -52.8665 H         1 UNK         0.0650 
     76 H76        31.7383  -43.6661  -51.3822 H         1 UNK         0.1397 
     77 H77        27.4936  -43.4456  -51.9822 H         1 UNK         0.1363 
     78 H78        30.1577  -41.7165  -54.8570 H         1 UNK         0.1355 
     79 H79        27.7694  -41.3928  -55.0946 H         1 UNK         0.0707 
     80 H80        26.7069  -41.7758  -53.7620 H         1 UNK         0.0707 
     81 H81        29.0280  -43.2395  -56.3138 H         1 UNK         0.1034 
     82 H82        28.8010  -44.9291  -55.9607 H         1 UNK         0.1034 
     83 H83        27.3595  -43.3805  -58.1672 H         1 UNK         0.0482 
     84 H84        28.7383  -46.2746  -59.4481 H         1 UNK         0.3460 
     85 H85        30.1836  -45.5140  -60.0647 H         1 UNK         0.3460 
     86 H86        27.0118  -46.1135  -57.2452 H         1 UNK         0.2989 
     87 H87        24.4578  -46.7647  -58.3900 H         1 UNK         0.0559 
     88 H88        24.1789  -46.5417  -60.8303 H         1 UNK         0.0848 
     89 H89        24.2813  -48.2420  -60.4092 H         1 UNK         0.0848 
     90 H90        25.6687  -47.4241  -61.1272 H         1 UNK         0.0848 
     91 H91        25.6173  -48.4571  -57.6037 H         1 UNK         0.3144 
     92 H92        27.9136  -50.5345  -58.5362 H         1 UNK         0.0727 
     93 H93        29.4349  -48.3972  -56.9511 H         1 UNK         0.0790 
     94 H94        29.9670  -49.1362  -58.4521 H         1 UNK         0.0790 
     95 H95        29.8387  -50.1145  -57.0090 H         1 UNK         0.0790 
     96 H96        27.2629  -49.1755  -55.9592 H         1 UNK         0.3215 
     97 H97        24.3564  -51.0790  -55.5243 H         1 UNK         0.0863 
     98 H98        25.2340  -51.9477  -53.3777 H         1 UNK         0.0808 
     99 H99        26.8920  -51.6688  -53.9077 H         1 UNK         0.0808 
    100 H100       25.8974  -52.8684  -54.7161 H         1 UNK         0.0808 
    101 H101       25.8013  -49.4302  -53.6858 H         1 UNK         0.3118 
    102 H102       24.9825  -46.2950  -55.0499 H         1 UNK         0.0546 
    103 H103       23.6197  -47.5877  -52.6261 H         1 UNK         0.0828 
    104 H104       22.7869  -46.8599  -53.9924 H         1 UNK         0.0828 
    105 H105       23.7683  -45.8573  -52.9394 H         1 UNK         0.0828 
    106 H106       26.0263  -46.8588  -52.5165 H         1 UNK         0.3005 
    107 H107       29.2021  -46.1627  -53.3655 H         1 UNK         0.1257 
    108 H108       27.4511  -45.7267  -51.5515 H         1 UNK         0.0775 
    109 H109       27.5723  -47.3986  -51.0742 H         1 UNK         0.0775 
    110 H110       28.3898  -44.1717  -49.8199 H         1 UNK         0.0840 
    111 H111       30.0979  -44.0609  -49.4913 H         1 UNK         0.0840 
    112 H112       29.0470  -48.9047  -52.2895 H         1 UNK         0.2987 
    113 H113       31.2928  -50.0861  -52.6919 H         1 UNK         0.0785 
    114 H114       28.9886  -50.9277  -53.1779 H         1 UNK         0.0798 
    115 H115       30.1370  -52.0257  -53.8896 H         1 UNK         0.0798 
    116 H116       29.2871  -50.8705  -54.9077 H         1 UNK         0.0798 
    117 H117       32.1353  -49.2282  -55.1659 H         1 UNK         0.3079 
    118 H118       34.4233  -51.8952  -55.9858 H         1 UNK         0.0794 
    119 H119       34.1290  -50.5603  -58.0291 H         1 UNK         0.0786 
    120 H120       32.8506  -49.6013  -57.2888 H         1 UNK         0.0786 
    121 H121       32.5980  -51.3103  -57.6135 H         1 UNK         0.0786 
    122 H122       34.8478  -49.0491  -55.9443 H         1 UNK         0.3032 
    123 H123       36.5895  -48.8056  -52.9451 H         1 UNK         0.1094 
    124 H124       38.0084  -49.0733  -55.6529 H         1 UNK         0.0794 
    125 H125       38.6376  -48.2382  -54.2324 H         1 UNK         0.0794 
    126 H126       38.4085  -49.9782  -54.1991 H         1 UNK         0.0794 
    127 H127       36.6220  -47.0467  -55.1691 H         1 UNK         0.3016 
@<TRIPOS>BOND
     1    1    2 1    
     2    1   67 1    
     3    1   68 1    
     4    1   69 1    
     5    2    3 2    
     6    2    4 am   BACKBONE|DICT|INTERRES
     7    4    5 1    
     8    4   70 1    
     9    5    6 1    
    10    5   65 1    
    11    5   71 1    
    12    6    7 1    
    13    6   72 1    
    14    6   73 1    
    15    7    8 1    
    16    8    9 1    
    17    8   74 1    
    18    8   75 1    
    19    9   10 ar   
    20    9   14 ar   
    21   10   11 ar   
    22   10   76 1    
    23   11   12 ar   
    24   11   48 1    
    25   12   13 ar   
    26   12   77 1    
    27   13   14 ar   
    28   13   15 1    
    29   14   78 1    
    30   15   16 1    
    31   15   79 1    
    32   15   80 1    
    33   16   17 1    
    34   17   18 1    
    35   17   81 1    
    36   17   82 1    
    37   18   19 1    
    38   18   22 1    
    39   18   83 1    
    40   19   20 am   BACKBONE|DICT|INTERRES
    41   19   21 2    
    42   20   84 1    
    43   20   85 1    
    44   22   23 am   BACKBONE|DICT|INTERRES
    45   22   86 1    
    46   23   24 2    
    47   23   25 1    
    48   25   26 1    
    49   25   27 1    
    50   25   87 1    
    51   26   88 1    
    52   26   89 1    
    53   26   90 1    
    54   27   28 am   BACKBONE|DICT|INTERRES
    55   27   91 1    
    56   28   29 2    
    57   28   30 1    
    58   30   31 1    
    59   30   32 1    
    60   30   92 1    
    61   31   93 1    
    62   31   94 1    
    63   31   95 1    
    64   32   33 am   BACKBONE|DICT|INTERRES
    65   32   96 1    
    66   33   34 2    
    67   33   35 1    
    68   35   36 1    
    69   35   37 1    
    70   35   97 1    
    71   36   98 1    
    72   36   99 1    
    73   36  100 1    
    74   37   38 am   BACKBONE|DICT|INTERRES
    75   37  101 1    
    76   38   39 2    
    77   38   40 1    
    78   40   41 1    
    79   40   42 1    
    80   40  102 1    
    81   41  103 1    
    82   41  104 1    
    83   41  105 1    
    84   42   43 am   BACKBONE|DICT|INTERRES
    85   42  106 1    
    86   43   44 2    
    87   43   45 1    
    88   45   46 1    
    89   45   49 1    
    90   45  107 1    
    91   46   47 1    
    92   46  108 1    
    93   46  109 1    
    94   47   48 1    
    95   48  110 1    
    96   48  111 1    
    97   49   50 am   BACKBONE|DICT|INTERRES
    98   49  112 1    
    99   50   51 2    
   100   50   52 1    
   101   52   53 1    
   102   52   54 1    
   103   52  113 1    
   104   53  114 1    
   105   53  115 1    
   106   53  116 1    
   107   54   55 am   BACKBONE|DICT|INTERRES
   108   54  117 1    
   109   55   56 2    
   110   55   57 1    
   111   57   58 1    
   112   57   59 1    
   113   57  118 1    
   114   58  119 1    
   115   58  120 1    
   116   58  121 1    
   117   59   60 am   BACKBONE|DICT|INTERRES
   118   59  122 1    
   119   60   61 2    
   120   60   62 1    
   121   62   63 1    
   122   62   64 1    
   123   62  123 1    
   124   63  124 1    
   125   63  125 1    
   126   63  126 1    
   127   64   65 am   BACKBONE|DICT|INTERRES
   128   64  127 1    
   129   65   66 2    
@<TRIPOS>SUBSTRUCTURE
     1 UNK         1 GROUP             0       ****    0 ROOT    
