@<TRIPOS>MOLECULE
3R134
127   129    1
SMALL
USER_CHARGES


@<TRIPOS>ATOM
      1 CA         35.5592  -48.0224  -52.0373 C.3       0 UNK        -0.1968 
      2 C          34.3262  -47.2681  -52.5105 C.2       0 UNK         0.4852 
      3 O          33.5969  -47.7755  -53.3677 O.2       0 UNK        -0.5359 
      4 N          34.0950  -46.0704  -51.9494 N.am      1 UNK        -0.4300 
      5 CA         32.9751  -45.1689  -52.2483 C.3       1 UNK         0.0863 
      6 C6         32.9624  -43.9179  -51.3337 C.3       11 UNK        -0.0953 
      7 S7         34.4594  -42.8943  -51.5129 S.3       11 UNK        -0.2369 
      8 C8         33.8651  -41.5834  -52.6340 C.3       11 UNK         0.0226 
      9 C9         33.4201  -42.1360  -53.9820 C.ar      11 UNK        -0.0699 
     10 C10        34.3216  -42.8561  -54.7714 C.ar      11 UNK        -0.0804 
     11 C11        33.9168  -43.4056  -55.9890 C.ar      11 UNK        -0.0871 
     12 C12        32.6144  -43.1827  -56.4444 C.ar      11 UNK        -0.1008 
     13 C13        31.7013  -42.4654  -55.6669 C.ar      11 UNK        -0.0735 
     14 C14        32.1080  -41.9474  -54.4324 C.ar      11 UNK        -0.0945 
     15 C15        30.2833  -42.2491  -56.1767 C.3       11 UNK         0.0169 
     16 S16        29.3290  -43.8010  -56.1870 S.3       11 UNK        -0.2669 
     17 C17        27.7830  -43.2638  -57.0045 C.3       11 UNK        -0.0850 
     18 CA         26.5768  -43.1764  -56.0200 C.3       10 UNK         0.0855 
     19 C          25.2899  -42.5260  -56.6203 C.2       10 UNK         0.5543 
     20 N          25.4015  -41.6684  -57.6270 N.am      10 UNK        -0.7343 
     21 O          24.1808  -42.7440  -56.1353 O.2       10 UNK        -0.5027 
     22 N          26.3159  -44.4587  -55.3430 N.am      10 UNK        -0.4495 
     23 C          25.8350  -45.5748  -55.9080 C.2       10 UNK         0.4903 
     24 O          25.5220  -45.6738  -57.0962 O.2       10 UNK        -0.4860 
     25 CA         25.7623  -46.7947  -54.9738 C.3       9 UNK         0.0227 
     26 CB         24.8161  -46.5689  -53.7745 C.3       9 UNK        -0.1964 
     27 N          25.4789  -48.0548  -55.6672 N.am      9 UNK        -0.4231 
     28 C          24.3240  -48.5129  -56.1740 C.2       9 UNK         0.5014 
     29 O          23.2476  -47.9188  -56.0955 O.2       9 UNK        -0.5270 
     30 CA         24.3715  -49.8799  -56.8951 C.3       8 UNK         0.0284 
     31 CB         23.8419  -49.7589  -58.3347 C.3       8 UNK        -0.1977 
     32 N          25.7162  -50.4639  -56.9423 N.am      8 UNK        -0.4342 
     33 C          26.3460  -51.0949  -55.9440 C.2       8 UNK         0.5039 
     34 O          25.8069  -51.3885  -54.8774 O.2       8 UNK        -0.5547 
     35 CA         27.8499  -51.3717  -56.1343 C.3       7 UNK         0.0281 
     36 CB         28.0960  -52.6816  -56.9074 C.3       7 UNK        -0.1963 
     37 N          28.5895  -50.2357  -56.7132 N.am      7 UNK        -0.4444 
     38 C          28.5113  -49.7258  -57.9516 C.2       7 UNK         0.5104 
     39 O          27.7938  -50.1941  -58.8359 O.2       7 UNK        -0.5100 
     40 CA         29.3051  -48.4489  -58.2508 C.3       6 UNK         0.0396 
     41 CB         28.4725  -47.2045  -57.9048 C.3       6 UNK        -0.1801 
     42 N          30.5832  -48.3816  -57.5369 N.am      6 UNK        -0.4747 
     43 C          31.7579  -48.1548  -58.1418 C.2       6 UNK         0.5012 
     44 O          31.8951  -48.0735  -59.3638 O.2       6 UNK        -0.5003 
     45 CA         32.9954  -47.9438  -57.2481 C.3       5 UNK         0.0782 
     46 C46        33.1098  -46.4542  -56.8547 C.3       11 UNK        -0.0868 
     47 S47        34.7732  -46.0137  -56.2541 S.3       11 UNK        -0.2515 
     48 C48        34.8777  -44.2732  -56.7869 C.3       11 UNK         0.0199 
     49 N          33.0280  -48.8273  -56.0794 N.am      5 UNK        -0.4607 
     50 C          33.1649  -50.1588  -56.1455 C.2       4 UNK         0.5031 
     51 O          33.2413  -50.7894  -57.2001 O.2       4 UNK        -0.5119 
     52 CA         33.2415  -50.9193  -54.8173 C.3       4 UNK         0.0263 
     53 CB         34.6814  -50.9155  -54.2788 C.3       4 UNK        -0.1967 
     54 N          32.3347  -50.3401  -53.8228 N.am      4 UNK        -0.4237 
     55 C          31.1538  -50.8812  -53.4960 C.2       3 UNK         0.4908 
     56 O          30.7181  -51.9249  -53.9831 O.2       3 UNK        -0.5102 
     57 CA         30.3074  -50.1562  -52.4381 C.3       3 UNK         0.0241 
     58 CB         30.8127  -50.4916  -51.0254 C.3       3 UNK        -0.1971 
     59 N          30.2252  -48.7026  -52.5856 N.am      3 UNK        -0.4139 
     60 C          29.7801  -48.0292  -53.6524 C.2       2 UNK         0.5016 
     61 O          29.5292  -48.5435  -54.7424 O.2       2 UNK        -0.5319 
     62 CA         29.5712  -46.5159  -53.4714 C.3       2 UNK         0.0286 
     63 CB         28.4978  -46.1980  -52.4053 C.3       2 UNK        -0.1963 
     64 N          30.8210  -45.7920  -53.2205 N.am      2 UNK        -0.4790 
     65 C          31.6241  -45.8946  -52.1521 C.2       1 UNK         0.5024 
     66 O          31.3581  -46.5437  -51.1364 O.2       1 UNK        -0.4888 
     67 H67        36.2688  -48.1282  -52.8573 H         1 UNK         0.0892 
     68 H68        36.0620  -47.5102  -51.2173 H         1 UNK         0.0892 
     69 H69        35.2805  -49.0182  -51.6937 H         1 UNK         0.0892 
     70 H70        34.7358  -45.7268  -51.2492 H         1 UNK         0.3107 
     71 H71        33.1093  -44.8501  -53.2825 H         1 UNK         0.0773 
     72 H72        32.0882  -43.2966  -51.5392 H         1 UNK         0.0680 
     73 H73        32.8804  -44.2129  -50.2857 H         1 UNK         0.0680 
     74 H74        34.6698  -40.8646  -52.7937 H         1 UNK         0.0650 
     75 H75        33.0555  -41.0377  -52.1468 H         1 UNK         0.0650 
     76 H76        35.3289  -43.0244  -54.4151 H         1 UNK         0.1397 
     77 H77        32.2953  -43.5904  -57.3935 H         1 UNK         0.1363 
     78 H78        31.4042  -41.3955  -53.8243 H         1 UNK         0.1355 
     79 H79        30.3302  -41.8431  -57.1884 H         1 UNK         0.0707 
     80 H80        29.7598  -41.5106  -55.5675 H         1 UNK         0.0707 
     81 H81        27.9681  -42.3015  -57.4820 H         1 UNK         0.1034 
     82 H82        27.5607  -43.9597  -57.8151 H         1 UNK         0.1034 
     83 H83        26.8688  -42.4927  -55.2222 H         1 UNK         0.0482 
     84 H84        24.5660  -41.2369  -57.9905 H         1 UNK         0.3460 
     85 H85        26.2948  -41.4414  -58.0324 H         1 UNK         0.3460 
     86 H86        26.5242  -44.4677  -54.3563 H         1 UNK         0.2989 
     87 H87        26.7705  -46.9307  -54.5886 H         1 UNK         0.0559 
     88 H88        23.8063  -46.3133  -54.0969 H         1 UNK         0.0848 
     89 H89        25.1640  -45.7540  -53.1395 H         1 UNK         0.0848 
     90 H90        24.7523  -47.4575  -53.1463 H         1 UNK         0.0848 
     91 H91        26.2847  -48.6424  -55.8180 H         1 UNK         0.3144 
     92 H92        23.7171  -50.5585  -56.3441 H         1 UNK         0.0727 
     93 H93        24.4497  -49.0763  -58.9303 H         1 UNK         0.0790 
     94 H94        22.8189  -49.3803  -58.3471 H         1 UNK         0.0790 
     95 H95        23.8325  -50.7264  -58.8371 H         1 UNK         0.0790 
     96 H96        26.2594  -50.2995  -57.7881 H         1 UNK         0.3215 
     97 H97        28.2658  -51.5045  -55.1342 H         1 UNK         0.0863 
     98 H98        29.1618  -52.8955  -56.9888 H         1 UNK         0.0808 
     99 H99        27.6800  -52.6528  -57.9146 H         1 UNK         0.0808 
    100 H100       27.6350  -53.5254  -56.3927 H         1 UNK         0.0808 
    101 H101       29.1186  -49.6991  -56.0260 H         1 UNK         0.3118 
    102 H102       29.4667  -48.4440  -59.3306 H         1 UNK         0.0546 
    103 H103       28.3104  -47.1128  -56.8311 H         1 UNK         0.0828 
    104 H104       27.4934  -47.2369  -58.3850 H         1 UNK         0.0828 
    105 H105       28.9666  -46.2935  -58.2425 H         1 UNK         0.0828 
    106 H106       30.5485  -48.4452  -56.5251 H         1 UNK         0.3005 
    107 H107       33.8602  -48.1969  -57.8663 H         1 UNK         0.1257 
    108 H108       32.8925  -45.8236  -57.7187 H         1 UNK         0.0775 
    109 H109       32.3745  -46.1936  -56.0909 H         1 UNK         0.0775 
    110 H110       35.9009  -43.9211  -56.6477 H         1 UNK         0.0840 
    111 H111       34.6730  -44.1953  -57.8559 H         1 UNK         0.0840 
    112 H112       33.0627  -48.3753  -55.1702 H         1 UNK         0.2987 
    113 H113       32.9718  -51.9588  -55.0166 H         1 UNK         0.0785 
    114 H114       35.3493  -51.4439  -54.9603 H         1 UNK         0.0798 
    115 H115       34.7465  -51.4114  -53.3103 H         1 UNK         0.0798 
    116 H116       35.0712  -49.9044  -54.1683 H         1 UNK         0.0798 
    117 H117       32.6139  -49.4505  -53.4170 H         1 UNK         0.3079 
    118 H118       29.2883  -50.5376  -52.5301 H         1 UNK         0.0794 
    119 H119       30.1439  -50.0963  -50.2606 H         1 UNK         0.0786 
    120 H120       31.8073  -50.0808  -50.8454 H         1 UNK         0.0786 
    121 H121       30.8719  -51.5706  -50.8756 H         1 UNK         0.0786 
    122 H122       30.4931  -48.1433  -51.7806 H         1 UNK         0.3032 
    123 H123       29.1950  -46.1504  -54.4276 H         1 UNK         0.1094 
    124 H124       28.8409  -46.3852  -51.3888 H         1 UNK         0.0794 
    125 H125       28.1903  -45.1539  -52.4603 H         1 UNK         0.0794 
    126 H126       27.6064  -46.8098  -52.5376 H         1 UNK         0.0794 
    127 H127       31.1439  -45.2283  -53.9958 H         1 UNK         0.3016 
@<TRIPOS>BOND
     1    1    2 1    
     2    1   67 1    
     3    1   68 1    
     4    1   69 1    
     5    2    3 2    
     6    2    4 am   BACKBONE|DICT|INTERRES
     7    4    5 1    
     8    4   70 1    
     9    5    6 1    
    10    5   65 1    
    11    5   71 1    
    12    6    7 1    
    13    6   72 1    
    14    6   73 1    
    15    7    8 1    
    16    8    9 1    
    17    8   74 1    
    18    8   75 1    
    19    9   10 ar   
    20    9   14 ar   
    21   10   11 ar   
    22   10   76 1    
    23   11   12 ar   
    24   11   48 1    
    25   12   13 ar   
    26   12   77 1    
    27   13   14 ar   
    28   13   15 1    
    29   14   78 1    
    30   15   16 1    
    31   15   79 1    
    32   15   80 1    
    33   16   17 1    
    34   17   18 1    
    35   17   81 1    
    36   17   82 1    
    37   18   19 1    
    38   18   22 1    
    39   18   83 1    
    40   19   20 am   BACKBONE|DICT|INTERRES
    41   19   21 2    
    42   20   84 1    
    43   20   85 1    
    44   22   23 am   BACKBONE|DICT|INTERRES
    45   22   86 1    
    46   23   24 2    
    47   23   25 1    
    48   25   26 1    
    49   25   27 1    
    50   25   87 1    
    51   26   88 1    
    52   26   89 1    
    53   26   90 1    
    54   27   28 am   BACKBONE|DICT|INTERRES
    55   27   91 1    
    56   28   29 2    
    57   28   30 1    
    58   30   31 1    
    59   30   32 1    
    60   30   92 1    
    61   31   93 1    
    62   31   94 1    
    63   31   95 1    
    64   32   33 am   BACKBONE|DICT|INTERRES
    65   32   96 1    
    66   33   34 2    
    67   33   35 1    
    68   35   36 1    
    69   35   37 1    
    70   35   97 1    
    71   36   98 1    
    72   36   99 1    
    73   36  100 1    
    74   37   38 am   BACKBONE|DICT|INTERRES
    75   37  101 1    
    76   38   39 2    
    77   38   40 1    
    78   40   41 1    
    79   40   42 1    
    80   40  102 1    
    81   41  103 1    
    82   41  104 1    
    83   41  105 1    
    84   42   43 am   BACKBONE|DICT|INTERRES
    85   42  106 1    
    86   43   44 2    
    87   43   45 1    
    88   45   46 1    
    89   45   49 1    
    90   45  107 1    
    91   46   47 1    
    92   46  108 1    
    93   46  109 1    
    94   47   48 1    
    95   48  110 1    
    96   48  111 1    
    97   49   50 am   BACKBONE|DICT|INTERRES
    98   49  112 1    
    99   50   51 2    
   100   50   52 1    
   101   52   53 1    
   102   52   54 1    
   103   52  113 1    
   104   53  114 1    
   105   53  115 1    
   106   53  116 1    
   107   54   55 am   BACKBONE|DICT|INTERRES
   108   54  117 1    
   109   55   56 2    
   110   55   57 1    
   111   57   58 1    
   112   57   59 1    
   113   57  118 1    
   114   58  119 1    
   115   58  120 1    
   116   58  121 1    
   117   59   60 am   BACKBONE|DICT|INTERRES
   118   59  122 1    
   119   60   61 2    
   120   60   62 1    
   121   62   63 1    
   122   62   64 1    
   123   62  123 1    
   124   63  124 1    
   125   63  125 1    
   126   63  126 1    
   127   64   65 am   BACKBONE|DICT|INTERRES
   128   64  127 1    
   129   65   66 2    
@<TRIPOS>SUBSTRUCTURE
     1 UNK         1 GROUP             0       ****    0 ROOT    
