@<TRIPOS>MOLECULE
3R134
127   129    1
SMALL
USER_CHARGES


@<TRIPOS>ATOM
      1 CA         37.7381  -45.7546  -47.9923 C.3       0 UNK        -0.1968 
      2 C          36.5345  -45.5861  -48.9082 C.2       0 UNK         0.4852 
      3 O          35.6073  -44.8527  -48.5627 O.2       0 UNK        -0.5359 
      4 N          36.5483  -46.2609  -50.0677 N.am      1 UNK        -0.4300 
      5 CA         35.4943  -46.2547  -51.0920 C.3       1 UNK         0.0863 
      6 C6         35.3249  -44.8677  -51.7725 C.3       11 UNK        -0.0953 
      7 S7         34.6565  -44.9832  -53.4685 S.3       11 UNK        -0.2369 
      8 C8         33.1792  -43.9231  -53.3100 C.3       11 UNK         0.0226 
      9 C9         32.3617  -43.7337  -54.5883 C.ar      11 UNK        -0.0699 
     10 C10        32.9094  -43.8901  -55.8691 C.ar      11 UNK        -0.0804 
     11 C11        32.1330  -43.6599  -57.0087 C.ar      11 UNK        -0.0871 
     12 C12        30.8051  -43.2520  -56.8662 C.ar      11 UNK        -0.1008 
     13 C13        30.2373  -43.1081  -55.5986 C.ar      11 UNK        -0.0735 
     14 C14        31.0230  -43.3460  -54.4674 C.ar      11 UNK        -0.0945 
     15 C15        28.7845  -42.6764  -55.4467 C.3       11 UNK         0.0169 
     16 S16        27.6282  -44.0245  -55.8541 S.3       11 UNK        -0.2669 
     17 C17        27.5440  -43.9066  -57.6767 C.3       11 UNK        -0.0850 
     18 CA         26.1213  -44.1635  -58.2355 C.3       10 UNK         0.0855 
     19 C          26.0547  -43.8794  -59.7659 C.2       10 UNK         0.5543 
     20 N          25.6138  -44.8106  -60.6026 N.am      10 UNK        -0.7343 
     21 O          26.4027  -42.7849  -60.2018 O.2       10 UNK        -0.5027 
     22 N          25.6202  -45.4881  -57.8356 N.am      10 UNK        -0.4495 
     23 C          24.3253  -45.8097  -57.7086 C.2       10 UNK         0.4903 
     24 O          23.4015  -45.0327  -57.9517 O.2       10 UNK        -0.4860 
     25 CA         23.9896  -47.2337  -57.2298 C.3       9 UNK         0.0227 
     26 CB         23.5183  -48.0991  -58.4084 C.3       9 UNK        -0.1964 
     27 N          25.1139  -47.8807  -56.5433 N.am      9 UNK        -0.4231 
     28 C          25.4789  -47.5903  -55.2842 C.2       9 UNK         0.5014 
     29 O          24.8371  -46.8264  -54.5604 O.2       9 UNK        -0.5270 
     30 CA         26.7845  -48.2024  -54.7379 C.3       8 UNK         0.0284 
     31 CB         26.6773  -48.5877  -53.2467 C.3       8 UNK        -0.1977 
     32 N          27.3347  -49.3074  -55.5283 N.am      8 UNK        -0.4342 
     33 C          26.8058  -50.5204  -55.7374 C.2       8 UNK         0.5039 
     34 O          25.7435  -50.9081  -55.2478 O.2       8 UNK        -0.5547 
     35 CA         27.5992  -51.4260  -56.7018 C.3       7 UNK         0.0281 
     36 CB         26.8550  -52.7317  -57.0553 C.3       7 UNK        -0.1963 
     37 N          28.0066  -50.7112  -57.9213 N.am      7 UNK        -0.4444 
     38 C          27.1997  -50.0816  -58.7910 C.2       7 UNK         0.5104 
     39 O          25.9731  -50.0725  -58.7000 O.2       7 UNK        -0.5100 
     40 CA         27.8890  -49.2954  -59.9253 C.3       6 UNK         0.0396 
     41 CB         26.9363  -48.3158  -60.6431 C.3       6 UNK        -0.1801 
     42 N          29.1025  -48.6007  -59.4768 N.am      6 UNK        -0.4747 
     43 C          29.1881  -47.6669  -58.5160 C.2       6 UNK         0.5012 
     44 O          28.2168  -47.2100  -57.9052 O.2       6 UNK        -0.5003 
     45 CA         30.6178  -47.1869  -58.1868 C.3       5 UNK         0.0782 
     46 C46        31.0355  -46.0088  -59.0999 C.3       11 UNK        -0.0868 
     47 S47        32.8004  -45.5803  -58.9012 S.3       11 UNK        -0.2515 
     48 C48        32.7337  -43.8315  -58.3959 C.3       11 UNK         0.0199 
     49 N          30.8181  -46.8928  -56.7627 N.am      5 UNK        -0.4607 
     50 C          30.6566  -47.7756  -55.7694 C.2       4 UNK         0.5031 
     51 O          30.1634  -48.8981  -55.9193 O.2       4 UNK        -0.5119 
     52 CA         31.1401  -47.3335  -54.3763 C.3       4 UNK         0.0263 
     53 CB         30.0479  -46.5617  -53.6211 C.3       4 UNK        -0.1967 
     54 N          31.5666  -48.4702  -53.5573 N.am      4 UNK        -0.4237 
     55 C          32.6116  -49.2641  -53.8236 C.2       3 UNK         0.4908 
     56 O          33.4064  -49.0701  -54.7456 O.2       3 UNK        -0.5102 
     57 CA         32.8191  -50.4479  -52.8625 C.3       3 UNK         0.0241 
     58 CB         33.8476  -51.4677  -53.3873 C.3       3 UNK        -0.1971 
     59 N          33.2653  -49.9470  -51.5650 N.am      3 UNK        -0.4139 
     60 C          32.4615  -49.5119  -50.5852 C.2       2 UNK         0.5016 
     61 O          31.2332  -49.5958  -50.6168 O.2       2 UNK        -0.5319 
     62 CA         33.1527  -48.8108  -49.4022 C.3       2 UNK         0.0286 
     63 CB         33.6205  -49.8341  -48.3550 C.3       2 UNK        -0.1963 
     64 N          34.2919  -47.9951  -49.8404 N.am      2 UNK        -0.4790 
     65 C          34.1746  -46.8782  -50.5770 C.2       1 UNK         0.5024 
     66 O          33.0877  -46.3680  -50.8516 O.2       1 UNK        -0.4888 
     67 H67        37.4243  -46.1640  -47.0324 H         1 UNK         0.0892 
     68 H68        38.4860  -46.4235  -48.4177 H         1 UNK         0.0892 
     69 H69        38.2106  -44.7892  -47.8130 H         1 UNK         0.0892 
     70 H70        37.3491  -46.8398  -50.2821 H         1 UNK         0.3107 
     71 H71        35.8542  -46.9454  -51.8564 H         1 UNK         0.0773 
     72 H72        34.7153  -44.2024  -51.1584 H         1 UNK         0.0680 
     73 H73        36.2960  -44.3780  -51.8585 H         1 UNK         0.0680 
     74 H74        32.5407  -44.3458  -52.5331 H         1 UNK         0.0650 
     75 H75        33.4917  -42.9393  -52.9576 H         1 UNK         0.0650 
     76 H76        33.9431  -44.1815  -55.9913 H         1 UNK         0.1397 
     77 H77        30.2125  -43.0485  -57.7457 H         1 UNK         0.1363 
     78 H78        30.5914  -43.2207  -53.4836 H         1 UNK         0.1355 
     79 H79        28.5851  -41.8013  -56.0665 H         1 UNK         0.0707 
     80 H80        28.5921  -42.3633  -54.4194 H         1 UNK         0.0707 
     81 H81        28.2545  -44.6130  -58.1040 H         1 UNK         0.1034 
     82 H82        27.8817  -42.9145  -57.9801 H         1 UNK         0.1034 
     83 H83        25.4662  -43.4184  -57.7799 H         1 UNK         0.0482 
     84 H84        25.2981  -45.6987  -60.2515 H         1 UNK         0.3460 
     85 H85        25.5710  -44.6087  -61.5890 H         1 UNK         0.3460 
     86 H86        26.3311  -46.1827  -57.6363 H         1 UNK         0.2989 
     87 H87        23.1575  -47.1561  -56.5268 H         1 UNK         0.0559 
     88 H88        23.3008  -49.1197  -58.0926 H         1 UNK         0.0848 
     89 H89        24.2620  -48.1448  -59.2031 H         1 UNK         0.0848 
     90 H90        22.6051  -47.6938  -58.8461 H         1 UNK         0.0848 
     91 H91        25.6650  -48.5408  -57.0792 H         1 UNK         0.3144 
     92 H92        27.5193  -47.4018  -54.8226 H         1 UNK         0.0727 
     93 H93        27.6076  -49.0195  -52.8777 H         1 UNK         0.0790 
     94 H94        25.8808  -49.3120  -53.0738 H         1 UNK         0.0790 
     95 H95        26.4600  -47.7141  -52.6310 H         1 UNK         0.0790 
     96 H96        28.2375  -49.1131  -55.9571 H         1 UNK         0.3215 
     97 H97        28.5173  -51.6986  -56.1783 H         1 UNK         0.0863 
     98 H98        27.4501  -53.3614  -57.7164 H         1 UNK         0.0808 
     99 H99        25.9017  -52.5351  -57.5469 H         1 UNK         0.0808 
    100 H100       26.6426  -53.3141  -56.1579 H         1 UNK         0.0808 
    101 H101       29.0034  -50.6257  -58.0653 H         1 UNK         0.3118 
    102 H102       28.2092  -50.0386  -60.6569 H         1 UNK         0.0546 
    103 H103       26.5416  -47.5648  -59.9600 H         1 UNK         0.0828 
    104 H104       26.0851  -48.8426  -61.0762 H         1 UNK         0.0828 
    105 H105       27.4411  -47.7948  -61.4563 H         1 UNK         0.0828 
    106 H106       29.9565  -48.9039  -59.9259 H         1 UNK         0.3005 
    107 H107       31.2878  -48.0220  -58.4041 H         1 UNK         0.1257 
    108 H108       30.8851  -46.2670  -60.1500 H         1 UNK         0.0775 
    109 H109       30.4105  -45.1355  -58.9176 H         1 UNK         0.0775 
    110 H110       33.7459  -43.4241  -58.4054 H         1 UNK         0.0840 
    111 H111       32.1725  -43.2602  -59.1372 H         1 UNK         0.0840 
    112 H112       31.1932  -45.9775  -56.5546 H         1 UNK         0.2987 
    113 H113       32.0018  -46.6762  -54.5109 H         1 UNK         0.0785 
    114 H114       30.4630  -46.0512  -52.7517 H         1 UNK         0.0798 
    115 H115       29.2565  -47.2211  -53.2691 H         1 UNK         0.0798 
    116 H116       29.5858  -45.8032  -54.2535 H         1 UNK         0.0798 
    117 H117       30.9917  -48.6978  -52.7566 H         1 UNK         0.3079 
    118 H118       31.8625  -50.9639  -52.7524 H         1 UNK         0.0794 
    119 H119       33.5448  -51.8602  -54.3590 H         1 UNK         0.0786 
    120 H120       33.9423  -52.3173  -52.7108 H         1 UNK         0.0786 
    121 H121       34.8368  -51.0242  -53.5081 H         1 UNK         0.0786 
    122 H122       34.2584  -49.8018  -51.4590 H         1 UNK         0.3032 
    123 H123       32.4175  -48.1513  -48.9348 H         1 UNK         0.1094 
    124 H124       32.7840  -50.4396  -48.0031 H         1 UNK         0.0794 
    125 H125       34.3697  -50.5166  -48.7581 H         1 UNK         0.0794 
    126 H126       34.0498  -49.3403  -47.4829 H         1 UNK         0.0794 
    127 H127       35.2166  -48.3342  -49.6162 H         1 UNK         0.3016 
@<TRIPOS>BOND
     1    1    2 1    
     2    1   67 1    
     3    1   68 1    
     4    1   69 1    
     5    2    3 2    
     6    2    4 am   BACKBONE|DICT|INTERRES
     7    4    5 1    
     8    4   70 1    
     9    5    6 1    
    10    5   65 1    
    11    5   71 1    
    12    6    7 1    
    13    6   72 1    
    14    6   73 1    
    15    7    8 1    
    16    8    9 1    
    17    8   74 1    
    18    8   75 1    
    19    9   10 ar   
    20    9   14 ar   
    21   10   11 ar   
    22   10   76 1    
    23   11   12 ar   
    24   11   48 1    
    25   12   13 ar   
    26   12   77 1    
    27   13   14 ar   
    28   13   15 1    
    29   14   78 1    
    30   15   16 1    
    31   15   79 1    
    32   15   80 1    
    33   16   17 1    
    34   17   18 1    
    35   17   81 1    
    36   17   82 1    
    37   18   19 1    
    38   18   22 1    
    39   18   83 1    
    40   19   20 am   BACKBONE|DICT|INTERRES
    41   19   21 2    
    42   20   84 1    
    43   20   85 1    
    44   22   23 am   BACKBONE|DICT|INTERRES
    45   22   86 1    
    46   23   24 2    
    47   23   25 1    
    48   25   26 1    
    49   25   27 1    
    50   25   87 1    
    51   26   88 1    
    52   26   89 1    
    53   26   90 1    
    54   27   28 am   BACKBONE|DICT|INTERRES
    55   27   91 1    
    56   28   29 2    
    57   28   30 1    
    58   30   31 1    
    59   30   32 1    
    60   30   92 1    
    61   31   93 1    
    62   31   94 1    
    63   31   95 1    
    64   32   33 am   BACKBONE|DICT|INTERRES
    65   32   96 1    
    66   33   34 2    
    67   33   35 1    
    68   35   36 1    
    69   35   37 1    
    70   35   97 1    
    71   36   98 1    
    72   36   99 1    
    73   36  100 1    
    74   37   38 am   BACKBONE|DICT|INTERRES
    75   37  101 1    
    76   38   39 2    
    77   38   40 1    
    78   40   41 1    
    79   40   42 1    
    80   40  102 1    
    81   41  103 1    
    82   41  104 1    
    83   41  105 1    
    84   42   43 am   BACKBONE|DICT|INTERRES
    85   42  106 1    
    86   43   44 2    
    87   43   45 1    
    88   45   46 1    
    89   45   49 1    
    90   45  107 1    
    91   46   47 1    
    92   46  108 1    
    93   46  109 1    
    94   47   48 1    
    95   48  110 1    
    96   48  111 1    
    97   49   50 am   BACKBONE|DICT|INTERRES
    98   49  112 1    
    99   50   51 2    
   100   50   52 1    
   101   52   53 1    
   102   52   54 1    
   103   52  113 1    
   104   53  114 1    
   105   53  115 1    
   106   53  116 1    
   107   54   55 am   BACKBONE|DICT|INTERRES
   108   54  117 1    
   109   55   56 2    
   110   55   57 1    
   111   57   58 1    
   112   57   59 1    
   113   57  118 1    
   114   58  119 1    
   115   58  120 1    
   116   58  121 1    
   117   59   60 am   BACKBONE|DICT|INTERRES
   118   59  122 1    
   119   60   61 2    
   120   60   62 1    
   121   62   63 1    
   122   62   64 1    
   123   62  123 1    
   124   63  124 1    
   125   63  125 1    
   126   63  126 1    
   127   64   65 am   BACKBONE|DICT|INTERRES
   128   64  127 1    
   129   65   66 2    
@<TRIPOS>SUBSTRUCTURE
     1 UNK         1 GROUP             0       ****    0 ROOT    
