@<TRIPOS>MOLECULE
3R134
127   129    1
SMALL
USER_CHARGES


@<TRIPOS>ATOM
      1 CA         29.6991  -43.1579  -51.2571 C.3       0 UNK        -0.1968 
      2 C          31.0074  -43.6217  -50.6337 C.2       0 UNK         0.4852 
      3 O          31.6558  -42.8502  -49.9254 O.2       0 UNK        -0.5359 
      4 N          31.3930  -44.8748  -50.8879 N.am      1 UNK        -0.4300 
      5 CA         32.5930  -45.5313  -50.3745 C.3       1 UNK         0.0863 
      6 C6         33.9059  -45.0106  -51.0293 C.3       11 UNK        -0.0953 
      7 S7         34.0167  -45.3192  -52.8260 S.3       11 UNK        -0.2369 
      8 C8         33.6962  -43.6712  -53.5294 C.3       11 UNK         0.0226 
      9 C9         32.9275  -43.7838  -54.8373 C.ar      11 UNK        -0.0699 
     10 C10        33.5183  -44.3795  -55.9545 C.ar      11 UNK        -0.0804 
     11 C11        32.8016  -44.5282  -57.1452 C.ar      11 UNK        -0.0871 
     12 C12        31.4793  -44.0740  -57.2144 C.ar      11 UNK        -0.1008 
     13 C13        30.8793  -43.4599  -56.1075 C.ar      11 UNK        -0.0735 
     14 C14        31.6166  -43.3092  -54.9273 C.ar      11 UNK        -0.0945 
     15 C15        29.4478  -42.9363  -56.1962 C.3       11 UNK         0.0169 
     16 S16        28.4229  -43.4508  -54.7770 S.3       11 UNK        -0.2669 
     17 C17        26.8468  -42.5980  -55.1130 C.3       11 UNK        -0.0850 
     18 CA         25.6751  -43.5912  -55.3236 C.3       10 UNK         0.0855 
     19 C          24.3189  -42.8339  -55.3431 C.2       10 UNK         0.5543 
     20 N          23.6760  -42.6839  -54.1934 N.am      10 UNK        -0.7343 
     21 O          23.8713  -42.3442  -56.3787 O.2       10 UNK        -0.5027 
     22 N          25.8746  -44.4099  -56.5274 N.am      10 UNK        -0.4495 
     23 C          25.1473  -45.4839  -56.8585 C.2       10 UNK         0.4903 
     24 O          24.2640  -45.9638  -56.1459 O.2       10 UNK        -0.4860 
     25 CA         25.4288  -46.1283  -58.2228 C.3       9 UNK         0.0227 
     26 CB         26.3904  -45.3281  -59.1287 C.3       9 UNK        -0.1964 
     27 N          25.9437  -47.4824  -58.0237 N.am      9 UNK        -0.4231 
     28 C          25.6276  -48.5365  -58.7879 C.2       9 UNK         0.5014 
     29 O          24.8231  -48.4783  -59.7201 O.2       9 UNK        -0.5270 
     30 CA         26.3260  -49.8839  -58.5147 C.3       8 UNK         0.0284 
     31 CB         27.2732  -50.2341  -59.6752 C.3       8 UNK        -0.1977 
     32 N          27.0807  -49.9354  -57.2612 N.am      8 UNK        -0.4342 
     33 C          26.5417  -50.0707  -56.0428 C.2       8 UNK         0.5039 
     34 O          25.3342  -50.1986  -55.8380 O.2       8 UNK        -0.5547 
     35 CA         27.5135  -50.0326  -54.8482 C.3       7 UNK         0.0281 
     36 CB         28.1011  -51.4267  -54.5775 C.3       7 UNK        -0.1963 
     37 N          28.6036  -49.0676  -55.0228 N.am      7 UNK        -0.4444 
     38 C          28.4318  -47.7442  -55.1568 C.2       7 UNK         0.5104 
     39 O          27.3354  -47.1901  -55.1161 O.2       7 UNK        -0.5100 
     40 CA         29.6868  -46.9097  -55.4398 C.3       6 UNK         0.0396 
     41 CB         30.4898  -46.6636  -54.1561 C.3       6 UNK        -0.1801 
     42 N          30.5314  -47.5436  -56.4483 N.am      6 UNK        -0.4747 
     43 C          30.2355  -47.5807  -57.7555 C.2       6 UNK         0.5012 
     44 O          29.2518  -47.0331  -58.2509 O.2       6 UNK        -0.5003 
     45 CA         31.1690  -48.4034  -58.6638 C.3       5 UNK         0.0782 
     46 C46        32.2432  -47.5198  -59.3436 C.3       11 UNK        -0.0868 
     47 S47        33.5864  -46.9649  -58.2328 S.3       11 UNK        -0.2515 
     48 C48        33.4838  -45.1485  -58.3562 C.3       11 UNK         0.0199 
     49 N          31.7444  -49.5655  -57.9784 N.am      5 UNK        -0.4607 
     50 C          31.0335  -50.6160  -57.5466 C.2       4 UNK         0.5031 
     51 O          29.8216  -50.7354  -57.7171 O.2       4 UNK        -0.5119 
     52 CA         31.7915  -51.6852  -56.7442 C.3       4 UNK         0.0263 
     53 CB         32.4634  -52.6947  -57.6880 C.3       4 UNK        -0.1967 
     54 N          32.7902  -51.1143  -55.8349 N.am      4 UNK        -0.4237 
     55 C          32.4998  -50.3178  -54.7977 C.2       3 UNK         0.4908 
     56 O          31.3544  -49.9765  -54.4912 O.2       3 UNK        -0.5102 
     57 CA         33.6919  -49.7710  -54.0094 C.3       3 UNK         0.0241 
     58 CB         34.2274  -48.4867  -54.6668 C.3       3 UNK        -0.1971 
     59 N          33.2770  -49.4861  -52.6375 N.am      3 UNK        -0.4139 
     60 C          34.0469  -49.6375  -51.5542 C.2       2 UNK         0.5016 
     61 O          35.2254  -49.9982  -51.5975 O.2       2 UNK        -0.5319 
     62 CA         33.4033  -49.2927  -50.1980 C.3       2 UNK         0.0286 
     63 CB         34.1637  -49.9120  -49.0099 C.3       2 UNK        -0.1963 
     64 N          33.3549  -47.8405  -50.0228 N.am      2 UNK        -0.4790 
     65 C          32.3971  -47.0531  -50.5259 C.2       1 UNK         0.5024 
     66 O          31.3977  -47.4919  -51.1035 O.2       1 UNK        -0.4888 
     67 H67        29.2170  -43.9513  -51.8280 H         1 UNK         0.0892 
     68 H68        29.0072  -42.8320  -50.4810 H         1 UNK         0.0892 
     69 H69        29.8781  -42.3187  -51.9285 H         1 UNK         0.0892 
     70 H70        30.8113  -45.5010  -51.4312 H         1 UNK         0.3107 
     71 H71        32.6418  -45.3330  -49.3018 H         1 UNK         0.0773 
     72 H72        34.0248  -43.9442  -50.8346 H         1 UNK         0.0680 
     73 H73        34.7722  -45.4785  -50.5596 H         1 UNK         0.0680 
     74 H74        34.6446  -43.1600  -53.6989 H         1 UNK         0.0650 
     75 H75        33.1378  -43.0643  -52.8156 H         1 UNK         0.0650 
     76 H76        34.5352  -44.7424  -55.8908 H         1 UNK         0.1397 
     77 H77        30.9208  -44.1911  -58.1331 H         1 UNK         0.1363 
     78 H78        31.1588  -42.8375  -54.0693 H         1 UNK         0.1355 
     79 H79        28.9704  -43.2813  -57.1147 H         1 UNK         0.0707 
     80 H80        29.4774  -41.8470  -56.2437 H         1 UNK         0.0707 
     81 H81        26.6472  -41.9500  -54.2571 H         1 UNK         0.1034 
     82 H82        26.9499  -41.9332  -55.9727 H         1 UNK         0.1034 
     83 H83        25.6586  -44.2771  -54.4736 H         1 UNK         0.0482 
     84 H84        24.0399  -43.0740  -53.3378 H         1 UNK         0.3460 
     85 H85        22.8023  -42.1810  -54.1820 H         1 UNK         0.3460 
     86 H86        26.5746  -44.0834  -57.1744 H         1 UNK         0.2989 
     87 H87        24.4612  -46.1751  -58.7267 H         1 UNK         0.0559 
     88 H88        27.3847  -45.2338  -58.6913 H         1 UNK         0.0848 
     89 H89        26.0100  -44.3240  -59.3210 H         1 UNK         0.0848 
     90 H90        26.5069  -45.8132  -60.0980 H         1 UNK         0.0848 
     91 H91        26.5666  -47.6089  -57.2342 H         1 UNK         0.3144 
     92 H92        25.5461  -50.6472  -58.4740 H         1 UNK         0.0727 
     93 H93        27.7243  -51.2170  -59.5374 H         1 UNK         0.0790 
     94 H94        28.0787  -49.5047  -59.7678 H         1 UNK         0.0790 
     95 H95        26.7402  -50.2549  -60.6267 H         1 UNK         0.0790 
     96 H96        28.0947  -49.9340  -57.3419 H         1 UNK         0.3215 
     97 H97        26.9425  -49.7257  -53.9694 H         1 UNK         0.0863 
     98 H98        28.7520  -51.4206  -53.7029 H         1 UNK         0.0808 
     99 H99        28.6828  -51.7911  -55.4244 H         1 UNK         0.0808 
    100 H100       27.3094  -52.1529  -54.3891 H         1 UNK         0.0808 
    101 H101       29.5520  -49.4343  -55.0218 H         1 UNK         0.3118 
    102 H102       29.3678  -45.9444  -55.8328 H         1 UNK         0.0546 
    103 H103       29.9061  -46.0787  -53.4453 H         1 UNK         0.0828 
    104 H104       31.4048  -46.1107  -54.3597 H         1 UNK         0.0828 
    105 H105       30.7676  -47.5938  -53.6637 H         1 UNK         0.0828 
    106 H106       31.3458  -48.0413  -56.1205 H         1 UNK         0.3005 
    107 H107       30.5318  -48.7953  -59.4603 H         1 UNK         0.1257 
    108 H108       31.7727  -46.6649  -59.8322 H         1 UNK         0.0775 
    109 H109       32.7097  -48.0868  -60.1506 H         1 UNK         0.0775 
    110 H110       34.4987  -44.7547  -58.4293 H         1 UNK         0.0840 
    111 H111       32.9881  -44.8457  -59.2792 H         1 UNK         0.0840 
    112 H112       32.7363  -49.5293  -57.7948 H         1 UNK         0.2987 
    113 H113       31.0586  -52.2218  -56.1380 H         1 UNK         0.0785 
    114 H114       31.7319  -53.1439  -58.3615 H         1 UNK         0.0798 
    115 H115       32.9300  -53.5081  -57.1320 H         1 UNK         0.0798 
    116 H116       33.2303  -52.2260  -58.3060 H         1 UNK         0.0798 
    117 H117       33.7568  -51.3399  -56.0230 H         1 UNK         0.3079 
    118 H118       34.4762  -50.5313  -54.0051 H         1 UNK         0.0794 
    119 H119       33.4626  -47.7107  -54.7208 H         1 UNK         0.0786 
    120 H120       34.5724  -48.6762  -55.6838 H         1 UNK         0.0786 
    121 H121       35.0725  -48.0805  -54.1107 H         1 UNK         0.0786 
    122 H122       32.3126  -49.1925  -52.5303 H         1 UNK         0.3032 
    123 H123       32.3902  -49.7025  -50.1923 H         1 UNK         0.1094 
    124 H124       35.1820  -49.5287  -48.9322 H         1 UNK         0.0794 
    125 H125       33.6568  -49.7082  -48.0665 H         1 UNK         0.0794 
    126 H126       34.2303  -50.9959  -49.1131 H         1 UNK         0.0794 
    127 H127       34.1618  -47.4141  -49.5897 H         1 UNK         0.3016 
@<TRIPOS>BOND
     1    1    2 1    
     2    1   67 1    
     3    1   68 1    
     4    1   69 1    
     5    2    3 2    
     6    2    4 am   BACKBONE|DICT|INTERRES
     7    4    5 1    
     8    4   70 1    
     9    5    6 1    
    10    5   65 1    
    11    5   71 1    
    12    6    7 1    
    13    6   72 1    
    14    6   73 1    
    15    7    8 1    
    16    8    9 1    
    17    8   74 1    
    18    8   75 1    
    19    9   10 ar   
    20    9   14 ar   
    21   10   11 ar   
    22   10   76 1    
    23   11   12 ar   
    24   11   48 1    
    25   12   13 ar   
    26   12   77 1    
    27   13   14 ar   
    28   13   15 1    
    29   14   78 1    
    30   15   16 1    
    31   15   79 1    
    32   15   80 1    
    33   16   17 1    
    34   17   18 1    
    35   17   81 1    
    36   17   82 1    
    37   18   19 1    
    38   18   22 1    
    39   18   83 1    
    40   19   20 am   BACKBONE|DICT|INTERRES
    41   19   21 2    
    42   20   84 1    
    43   20   85 1    
    44   22   23 am   BACKBONE|DICT|INTERRES
    45   22   86 1    
    46   23   24 2    
    47   23   25 1    
    48   25   26 1    
    49   25   27 1    
    50   25   87 1    
    51   26   88 1    
    52   26   89 1    
    53   26   90 1    
    54   27   28 am   BACKBONE|DICT|INTERRES
    55   27   91 1    
    56   28   29 2    
    57   28   30 1    
    58   30   31 1    
    59   30   32 1    
    60   30   92 1    
    61   31   93 1    
    62   31   94 1    
    63   31   95 1    
    64   32   33 am   BACKBONE|DICT|INTERRES
    65   32   96 1    
    66   33   34 2    
    67   33   35 1    
    68   35   36 1    
    69   35   37 1    
    70   35   97 1    
    71   36   98 1    
    72   36   99 1    
    73   36  100 1    
    74   37   38 am   BACKBONE|DICT|INTERRES
    75   37  101 1    
    76   38   39 2    
    77   38   40 1    
    78   40   41 1    
    79   40   42 1    
    80   40  102 1    
    81   41  103 1    
    82   41  104 1    
    83   41  105 1    
    84   42   43 am   BACKBONE|DICT|INTERRES
    85   42  106 1    
    86   43   44 2    
    87   43   45 1    
    88   45   46 1    
    89   45   49 1    
    90   45  107 1    
    91   46   47 1    
    92   46  108 1    
    93   46  109 1    
    94   47   48 1    
    95   48  110 1    
    96   48  111 1    
    97   49   50 am   BACKBONE|DICT|INTERRES
    98   49  112 1    
    99   50   51 2    
   100   50   52 1    
   101   52   53 1    
   102   52   54 1    
   103   52  113 1    
   104   53  114 1    
   105   53  115 1    
   106   53  116 1    
   107   54   55 am   BACKBONE|DICT|INTERRES
   108   54  117 1    
   109   55   56 2    
   110   55   57 1    
   111   57   58 1    
   112   57   59 1    
   113   57  118 1    
   114   58  119 1    
   115   58  120 1    
   116   58  121 1    
   117   59   60 am   BACKBONE|DICT|INTERRES
   118   59  122 1    
   119   60   61 2    
   120   60   62 1    
   121   62   63 1    
   122   62   64 1    
   123   62  123 1    
   124   63  124 1    
   125   63  125 1    
   126   63  126 1    
   127   64   65 am   BACKBONE|DICT|INTERRES
   128   64  127 1    
   129   65   66 2    
@<TRIPOS>SUBSTRUCTURE
     1 UNK         1 GROUP             0       ****    0 ROOT    
