@<TRIPOS>MOLECULE
3R134
127   129    1
SMALL
USER_CHARGES


@<TRIPOS>ATOM
      1 CA         34.7289  -44.5721  -58.9073 C.3       0 UNK        -0.1968 
      2 C          34.0990  -45.4668  -57.8508 C.2       0 UNK         0.4852 
      3 O          33.7583  -46.6140  -58.1434 O.2       0 UNK        -0.5359 
      4 N          33.9627  -44.9627  -56.6165 N.am      1 UNK        -0.4300 
      5 CA         33.3139  -45.6496  -55.4921 C.3       1 UNK         0.0863 
      6 C6         32.7094  -44.6464  -54.4802 C.3       11 UNK        -0.0953 
      7 S7         33.9360  -43.6940  -53.5124 S.3       11 UNK        -0.2369 
      8 C8         32.9989  -42.2037  -53.0304 C.3       11 UNK         0.0226 
      9 C9         31.5643  -42.5131  -52.6218 C.ar      11 UNK        -0.0699 
     10 C10        31.2924  -43.2469  -51.4625 C.ar      11 UNK        -0.0804 
     11 C11        29.9753  -43.5780  -51.1268 C.ar      11 UNK        -0.0871 
     12 C12        28.9273  -43.1498  -51.9467 C.ar      11 UNK        -0.1008 
     13 C13        29.1899  -42.4306  -53.1144 C.ar      11 UNK        -0.0735 
     14 C14        30.5077  -42.0988  -53.4368 C.ar      11 UNK        -0.0945 
     15 C15        28.0538  -42.0578  -54.0544 C.3       11 UNK         0.0169 
     16 S16        27.4205  -43.5213  -54.9362 S.3       11 UNK        -0.2669 
     17 C17        28.9133  -44.1168  -55.8119 C.3       11 UNK        -0.0850 
     18 CA         28.6479  -44.4663  -57.2961 C.3       10 UNK         0.0855 
     19 C          29.9714  -44.8390  -58.0284 C.2       10 UNK         0.5543 
     20 N          30.0877  -45.9918  -58.6771 N.am      10 UNK        -0.7343 
     21 O          30.9142  -44.0522  -58.0158 O.2       10 UNK        -0.5027 
     22 N          27.5803  -45.4681  -57.4336 N.am      10 UNK        -0.4495 
     23 C          26.7513  -45.5479  -58.4819 C.2       10 UNK         0.4903 
     24 O          26.7509  -44.7427  -59.4150 O.2       10 UNK        -0.4860 
     25 CA         25.7635  -46.7330  -58.4917 C.3       9 UNK         0.0227 
     26 CB         25.1623  -46.9984  -59.8882 C.3       9 UNK        -0.1964 
     27 N          26.3268  -47.9697  -57.9351 N.am      9 UNK        -0.4231 
     28 C          27.4452  -48.6021  -58.3298 C.2       9 UNK         0.5014 
     29 O          28.1573  -48.2062  -59.2539 O.2       9 UNK        -0.5270 
     30 CA         27.8634  -49.8663  -57.5567 C.3       8 UNK         0.0284 
     31 CB         29.3814  -49.8876  -57.3021 C.3       8 UNK        -0.1977 
     32 N          27.1536  -49.9732  -56.2782 N.am      8 UNK        -0.4342 
     33 C          26.2002  -50.8761  -56.0045 C.2       8 UNK         0.5039 
     34 O          25.8845  -51.7900  -56.7671 O.2       8 UNK        -0.5547 
     35 CA         25.4412  -50.7323  -54.6696 C.3       7 UNK         0.0281 
     36 CB         25.9997  -51.7086  -53.6219 C.3       7 UNK        -0.1963 
     37 N          25.4478  -49.3742  -54.1168 N.am      7 UNK        -0.4444 
     38 C          24.8971  -48.2990  -54.6988 C.2       7 UNK         0.5104 
     39 O          24.2838  -48.3397  -55.7649 O.2       7 UNK        -0.5100 
     40 CA         25.1312  -46.9383  -54.0164 C.3       6 UNK         0.0396 
     41 CB         23.9398  -46.5750  -53.1175 C.3       6 UNK        -0.1801 
     42 N          26.3730  -46.8656  -53.2350 N.am      6 UNK        -0.4747 
     43 C          27.6079  -47.0300  -53.7352 C.2       6 UNK         0.5012 
     44 O          27.8035  -47.3003  -54.9243 O.2       6 UNK        -0.5003 
     45 CA         28.8059  -46.8995  -52.7589 C.3       5 UNK         0.0782 
     46 C46        28.3986  -46.5311  -51.3038 C.3       11 UNK        -0.0868 
     47 S47        29.8451  -46.2018  -50.2369 S.3       11 UNK        -0.2515 
     48 C48        29.6864  -44.4181  -49.8921 C.3       11 UNK         0.0199 
     49 N          29.5942  -48.1348  -52.7849 N.am      5 UNK        -0.4607 
     50 C          30.4757  -48.4736  -53.7312 C.2       4 UNK         0.5031 
     51 O          30.7958  -47.7407  -54.6703 O.2       4 UNK        -0.5119 
     52 CA         31.0796  -49.8823  -53.6196 C.3       4 UNK         0.0263 
     53 CB         29.9723  -50.9614  -53.6470 C.3       4 UNK        -0.1967 
     54 N          32.0238  -50.0459  -54.7223 N.am      4 UNK        -0.4237 
     55 C          32.8377  -51.0806  -54.9627 C.2       3 UNK         0.4908 
     56 O          32.8786  -52.1076  -54.2846 O.2       3 UNK        -0.5102 
     57 CA         33.7973  -50.9220  -56.1545 C.3       3 UNK         0.0241 
     58 CB         33.0334  -50.8807  -57.4894 C.3       3 UNK        -0.1971 
     59 N          34.6223  -49.7203  -56.0215 N.am      3 UNK        -0.4139 
     60 C          35.5963  -49.5602  -55.1123 C.2       2 UNK         0.5016 
     61 O          35.9955  -50.4558  -54.3670 O.2       2 UNK        -0.5319 
     62 CA         36.2292  -48.1600  -55.0042 C.3       2 UNK         0.0286 
     63 CB         37.5297  -48.0892  -55.8207 C.3       2 UNK        -0.1963 
     64 N          35.3323  -47.0832  -55.4343 N.am      2 UNK        -0.4790 
     65 C          34.1882  -46.7397  -54.8228 C.2       1 UNK         0.5024 
     66 O          33.8146  -47.2627  -53.7723 O.2       1 UNK        -0.4888 
     67 H67        35.6060  -45.0555  -59.3366 H         1 UNK         0.0892 
     68 H68        34.0147  -44.3850  -59.7088 H         1 UNK         0.0892 
     69 H69        35.0368  -43.6106  -58.4969 H         1 UNK         0.0892 
     70 H70        34.2843  -44.0253  -56.4200 H         1 UNK         0.3107 
     71 H71        32.4656  -46.1910  -55.9155 H         1 UNK         0.0773 
     72 H72        32.0653  -43.9497  -55.0181 H         1 UNK         0.0680 
     73 H73        32.0552  -45.1709  -53.7806 H         1 UNK         0.0680 
     74 H74        33.0180  -41.4991  -53.8632 H         1 UNK         0.0650 
     75 H75        33.5137  -41.7133  -52.2033 H         1 UNK         0.0650 
     76 H76        32.1095  -43.5869  -50.8407 H         1 UNK         0.1397 
     77 H77        27.9054  -43.4024  -51.7003 H         1 UNK         0.1363 
     78 H78        30.7147  -41.5476  -54.3439 H         1 UNK         0.1355 
     79 H79        28.3750  -41.3095  -54.7807 H         1 UNK         0.0707 
     80 H80        27.2415  -41.6055  -53.4837 H         1 UNK         0.0707 
     81 H81        29.6835  -43.3472  -55.7569 H         1 UNK         0.1034 
     82 H82        29.3162  -44.9812  -55.2827 H         1 UNK         0.1034 
     83 H83        28.3066  -43.5459  -57.7738 H         1 UNK         0.0482 
     84 H84        29.3140  -46.6437  -58.7429 H         1 UNK         0.3460 
     85 H85        30.9625  -46.2094  -59.1263 H         1 UNK         0.3460 
     86 H86        27.5383  -46.1714  -56.7046 H         1 UNK         0.2989 
     87 H87        24.9454  -46.4476  -57.8289 H         1 UNK         0.0559 
     88 H88        24.6299  -46.1220  -60.2599 H         1 UNK         0.0848 
     89 H89        24.4482  -47.8214  -59.8628 H         1 UNK         0.0848 
     90 H90        25.9333  -47.2451  -60.6189 H         1 UNK         0.0848 
     91 H91        25.7951  -48.3685  -57.1689 H         1 UNK         0.3144 
     92 H92        27.6230  -50.7137  -58.2015 H         1 UNK         0.0727 
     93 H93        29.6948  -49.0432  -56.6887 H         1 UNK         0.0790 
     94 H94        29.9393  -49.8334  -58.2377 H         1 UNK         0.0790 
     95 H95        29.6900  -50.8069  -56.8060 H         1 UNK         0.0790 
     96 H96        27.3371  -49.2292  -55.6118 H         1 UNK         0.3215 
     97 H97        24.4006  -51.0014  -54.8642 H         1 UNK         0.0863 
     98 H98        25.4037  -51.6962  -52.7093 H         1 UNK         0.0808 
     99 H99        27.0290  -51.4711  -53.3552 H         1 UNK         0.0808 
    100 H100       25.9894  -52.7327  -53.9981 H         1 UNK         0.0808 
    101 H101       25.9310  -49.2394  -53.2410 H         1 UNK         0.3118 
    102 H102       25.2008  -46.1882  -54.8074 H         1 UNK         0.0546 
    103 H103       23.8338  -47.2702  -52.2839 H         1 UNK         0.0828 
    104 H104       23.0055  -46.5971  -53.6806 H         1 UNK         0.0828 
    105 H105       24.0432  -45.5700  -52.7081 H         1 UNK         0.0828 
    106 H106       26.2707  -46.6509  -52.2537 H         1 UNK         0.3005 
    107 H107       29.4240  -46.0857  -53.1455 H         1 UNK         0.1257 
    108 H108       27.7467  -45.6580  -51.2850 H         1 UNK         0.0775 
    109 H109       27.8299  -47.3428  -50.8461 H         1 UNK         0.0775 
    110 H110       28.6897  -44.2046  -49.5025 H         1 UNK         0.0840 
    111 H111       30.3840  -44.1508  -49.0969 H         1 UNK         0.0840 
    112 H112       29.4061  -48.7906  -52.0417 H         1 UNK         0.2987 
    113 H113       31.6367  -49.9454  -52.6830 H         1 UNK         0.0785 
    114 H114       29.3314  -50.8863  -52.7687 H         1 UNK         0.0798 
    115 H115       30.3782  -51.9720  -53.6428 H         1 UNK         0.0798 
    116 H116       29.3332  -50.8644  -54.5232 H         1 UNK         0.0798 
    117 H117       32.0738  -49.2201  -55.3077 H         1 UNK         0.3079 
    118 H118       34.4578  -51.7918  -56.1695 H         1 UNK         0.0794 
    119 H119       33.7199  -50.8991  -58.3361 H         1 UNK         0.0786 
    120 H120       32.4182  -49.9848  -57.5813 H         1 UNK         0.0786 
    121 H121       32.3734  -51.7435  -57.5899 H         1 UNK         0.0786 
    122 H122       34.3789  -48.9273  -56.5989 H         1 UNK         0.3032 
    123 H123       36.4714  -47.9949  -53.9518 H         1 UNK         0.1094 
    124 H124       37.3463  -48.2285  -56.8869 H         1 UNK         0.0794 
    125 H125       38.0310  -47.1303  -55.6873 H         1 UNK         0.0794 
    126 H126       38.2297  -48.8648  -55.5064 H         1 UNK         0.0794 
    127 H127       35.5640  -46.6100  -56.2959 H         1 UNK         0.3016 
@<TRIPOS>BOND
     1    1    2 1    
     2    1   67 1    
     3    1   68 1    
     4    1   69 1    
     5    2    3 2    
     6    2    4 am   BACKBONE|DICT|INTERRES
     7    4    5 1    
     8    4   70 1    
     9    5    6 1    
    10    5   65 1    
    11    5   71 1    
    12    6    7 1    
    13    6   72 1    
    14    6   73 1    
    15    7    8 1    
    16    8    9 1    
    17    8   74 1    
    18    8   75 1    
    19    9   10 ar   
    20    9   14 ar   
    21   10   11 ar   
    22   10   76 1    
    23   11   12 ar   
    24   11   48 1    
    25   12   13 ar   
    26   12   77 1    
    27   13   14 ar   
    28   13   15 1    
    29   14   78 1    
    30   15   16 1    
    31   15   79 1    
    32   15   80 1    
    33   16   17 1    
    34   17   18 1    
    35   17   81 1    
    36   17   82 1    
    37   18   19 1    
    38   18   22 1    
    39   18   83 1    
    40   19   20 am   BACKBONE|DICT|INTERRES
    41   19   21 2    
    42   20   84 1    
    43   20   85 1    
    44   22   23 am   BACKBONE|DICT|INTERRES
    45   22   86 1    
    46   23   24 2    
    47   23   25 1    
    48   25   26 1    
    49   25   27 1    
    50   25   87 1    
    51   26   88 1    
    52   26   89 1    
    53   26   90 1    
    54   27   28 am   BACKBONE|DICT|INTERRES
    55   27   91 1    
    56   28   29 2    
    57   28   30 1    
    58   30   31 1    
    59   30   32 1    
    60   30   92 1    
    61   31   93 1    
    62   31   94 1    
    63   31   95 1    
    64   32   33 am   BACKBONE|DICT|INTERRES
    65   32   96 1    
    66   33   34 2    
    67   33   35 1    
    68   35   36 1    
    69   35   37 1    
    70   35   97 1    
    71   36   98 1    
    72   36   99 1    
    73   36  100 1    
    74   37   38 am   BACKBONE|DICT|INTERRES
    75   37  101 1    
    76   38   39 2    
    77   38   40 1    
    78   40   41 1    
    79   40   42 1    
    80   40  102 1    
    81   41  103 1    
    82   41  104 1    
    83   41  105 1    
    84   42   43 am   BACKBONE|DICT|INTERRES
    85   42  106 1    
    86   43   44 2    
    87   43   45 1    
    88   45   46 1    
    89   45   49 1    
    90   45  107 1    
    91   46   47 1    
    92   46  108 1    
    93   46  109 1    
    94   47   48 1    
    95   48  110 1    
    96   48  111 1    
    97   49   50 am   BACKBONE|DICT|INTERRES
    98   49  112 1    
    99   50   51 2    
   100   50   52 1    
   101   52   53 1    
   102   52   54 1    
   103   52  113 1    
   104   53  114 1    
   105   53  115 1    
   106   53  116 1    
   107   54   55 am   BACKBONE|DICT|INTERRES
   108   54  117 1    
   109   55   56 2    
   110   55   57 1    
   111   57   58 1    
   112   57   59 1    
   113   57  118 1    
   114   58  119 1    
   115   58  120 1    
   116   58  121 1    
   117   59   60 am   BACKBONE|DICT|INTERRES
   118   59  122 1    
   119   60   61 2    
   120   60   62 1    
   121   62   63 1    
   122   62   64 1    
   123   62  123 1    
   124   63  124 1    
   125   63  125 1    
   126   63  126 1    
   127   64   65 am   BACKBONE|DICT|INTERRES
   128   64  127 1    
   129   65   66 2    
@<TRIPOS>SUBSTRUCTURE
     1 UNK         1 GROUP             0       ****    0 ROOT    
