@<TRIPOS>MOLECULE
3R134
127   129    1
SMALL
USER_CHARGES


@<TRIPOS>ATOM
      1 CA         33.6650  -45.9937  -50.2463 C.3       0 UNK        -0.1968 
      2 C          34.3920  -46.0530  -51.5802 C.2       0 UNK         0.4852 
      3 O          35.2471  -46.9211  -51.7623 O.2       0 UNK        -0.5359 
      4 N          34.0674  -45.1352  -52.5029 N.am      1 UNK        -0.4300 
      5 CA         34.7088  -44.9418  -53.8108 C.3       1 UNK         0.0863 
      6 C6         34.1270  -43.7245  -54.5750 C.3       11 UNK        -0.0953 
      7 S7         34.2081  -42.1891  -53.5880 S.3       11 UNK        -0.2369 
      8 C8         32.6688  -41.3265  -54.0593 C.3       11 UNK         0.0226 
      9 C9         31.3988  -42.1357  -53.8089 C.ar      11 UNK        -0.0699 
     10 C10        31.1788  -42.7760  -52.5836 C.ar      11 UNK        -0.0804 
     11 C11        30.0217  -43.5338  -52.3758 C.ar      11 UNK        -0.0871 
     12 C12        29.0625  -43.6153  -53.3863 C.ar      11 UNK        -0.1008 
     13 C13        29.2684  -42.9812  -54.6130 C.ar      11 UNK        -0.0735 
     14 C14        30.4358  -42.2406  -54.8185 C.ar      11 UNK        -0.0945 
     15 C15        28.2293  -43.1207  -55.7130 C.3       11 UNK         0.0169 
     16 S16        28.4401  -44.6906  -56.6057 S.3       11 UNK        -0.2669 
     17 C17        29.7011  -44.2462  -57.8548 C.3       11 UNK        -0.0850 
     18 CA         29.0954  -44.1352  -59.2856 C.3       10 UNK         0.0855 
     19 C          30.1126  -43.5949  -60.3363 C.2       10 UNK         0.5543 
     20 N          30.0399  -44.0088  -61.5953 N.am      10 UNK        -0.7343 
     21 O          30.9569  -42.7612  -60.0176 O.2       10 UNK        -0.5027 
     22 N          28.3692  -45.3572  -59.6760 N.am      10 UNK        -0.4495 
     23 C          28.9015  -46.5740  -59.8412 C.2       10 UNK         0.4903 
     24 O          30.1115  -46.8021  -59.8692 O.2       10 UNK        -0.4860 
     25 CA         27.8941  -47.7344  -59.9217 C.3       9 UNK         0.0227 
     26 CB         28.5716  -49.0980  -60.1555 C.3       9 UNK        -0.1964 
     27 N          27.1118  -47.8048  -58.6860 N.am      9 UNK        -0.4231 
     28 C          26.0136  -47.0877  -58.4074 C.2       9 UNK         0.5014 
     29 O          25.5175  -46.2782  -59.1941 O.2       9 UNK        -0.5270 
     30 CA         25.3949  -47.2850  -57.0081 C.3       8 UNK         0.0284 
     31 CB         23.8876  -46.9581  -56.9569 C.3       8 UNK        -0.1977 
     32 N          25.6850  -48.6091  -56.4452 N.am      8 UNK        -0.4342 
     33 C          25.2673  -49.8038  -56.8909 C.2       8 UNK         0.5039 
     34 O          24.4507  -49.9607  -57.7989 O.2       8 UNK        -0.5547 
     35 CA         25.9048  -51.0419  -56.2400 C.3       7 UNK         0.0281 
     36 CB         27.1042  -51.5207  -57.0765 C.3       7 UNK        -0.1963 
     37 N          26.3518  -50.7866  -54.8689 N.am      7 UNK        -0.4444 
     38 C          25.5760  -50.9039  -53.7836 C.2       7 UNK         0.5104 
     39 O          24.3999  -51.2673  -53.8168 O.2       7 UNK        -0.5100 
     40 CA         26.2218  -50.5719  -52.4266 C.3       6 UNK         0.0396 
     41 CB         26.7939  -51.8444  -51.7817 C.3       6 UNK        -0.1801 
     42 N          27.2798  -49.5621  -52.5196 N.am      6 UNK        -0.4747 
     43 C          27.0643  -48.2508  -52.7028 C.2       6 UNK         0.5012 
     44 O          25.9459  -47.7478  -52.8110 O.2       6 UNK        -0.5003 
     45 CA         28.3153  -47.3520  -52.7883 C.3       5 UNK         0.0782 
     46 C46        28.7442  -46.9302  -51.3573 C.3       11 UNK        -0.0868 
     47 S47        30.3299  -46.0285  -51.2670 S.3       11 UNK        -0.2515 
     48 C48        29.8193  -44.2906  -51.0746 C.3       11 UNK         0.0199 
     49 N          29.4196  -47.9435  -53.5554 N.am      5 UNK        -0.4607 
     50 C          29.3561  -48.4261  -54.8044 C.2       4 UNK         0.5031 
     51 O          28.3093  -48.5406  -55.4422 O.2       4 UNK        -0.5119 
     52 CA         30.6702  -48.8528  -55.4758 C.3       4 UNK         0.0263 
     53 CB         30.9931  -47.9010  -56.6370 C.3       4 UNK        -0.1967 
     54 N          31.8220  -48.9148  -54.5705 N.am      4 UNK        -0.4237 
     55 C          32.0441  -49.9001  -53.6855 C.2       3 UNK         0.4908 
     56 O          31.2348  -50.8052  -53.4747 O.2       3 UNK        -0.5102 
     57 CA         33.3764  -49.8737  -52.8991 C.3       3 UNK         0.0241 
     58 CB         33.8536  -51.2846  -52.4947 C.3       3 UNK        -0.1971 
     59 N          34.4528  -49.1349  -53.5732 N.am      3 UNK        -0.4139 
     60 C          34.9638  -49.3623  -54.7958 C.2       2 UNK         0.5016 
     61 O          34.6915  -50.3519  -55.4774 O.2       2 UNK        -0.5319 
     62 CA         35.9052  -48.2794  -55.3738 C.3       2 UNK         0.0286 
     63 CB         35.7806  -48.1622  -56.9081 C.3       2 UNK        -0.1963 
     64 N          35.7508  -46.9536  -54.7512 N.am      2 UNK        -0.4790 
     65 C          34.6275  -46.2224  -54.6631 C.2       1 UNK         0.5024 
     66 O          33.5466  -46.5616  -55.1466 O.2       1 UNK        -0.4888 
     67 H67        33.0198  -45.1187  -50.1720 H         1 UNK         0.0892 
     68 H68        33.0532  -46.8852  -50.1119 H         1 UNK         0.0892 
     69 H69        34.3850  -45.9497  -49.4297 H         1 UNK         0.0892 
     70 H70        33.3297  -44.4772  -52.3007 H         1 UNK         0.3107 
     71 H71        35.7623  -44.7308  -53.6156 H         1 UNK         0.0773 
     72 H72        34.6787  -43.5574  -55.5019 H         1 UNK         0.0680 
     73 H73        33.0940  -43.9191  -54.8684 H         1 UNK         0.0680 
     74 H74        32.7456  -41.0465  -55.1111 H         1 UNK         0.0650 
     75 H75        32.6049  -40.3944  -53.4966 H         1 UNK         0.0650 
     76 H76        31.9179  -42.6970  -51.7984 H         1 UNK         0.1397 
     77 H77        28.1619  -44.1905  -53.2275 H         1 UNK         0.1363 
     78 H78        30.5965  -41.7486  -55.7677 H         1 UNK         0.1355 
     79 H79        27.2301  -43.0980  -55.2754 H         1 UNK         0.0707 
     80 H80        28.2755  -42.2809  -56.4082 H         1 UNK         0.0707 
     81 H81        30.4906  -44.9986  -57.8328 H         1 UNK         0.1034 
     82 H82        30.1801  -43.3103  -57.5659 H         1 UNK         0.1034 
     83 H83        28.3295  -43.3601  -59.2408 H         1 UNK         0.0482 
     84 H84        29.3495  -44.6911  -61.8648 H         1 UNK         0.3460 
     85 H85        30.6914  -43.6491  -62.2749 H         1 UNK         0.3460 
     86 H86        27.3579  -45.2924  -59.6577 H         1 UNK         0.2989 
     87 H87        27.2275  -47.5405  -60.7646 H         1 UNK         0.0559 
     88 H88        29.2555  -49.3569  -59.3460 H         1 UNK         0.0848 
     89 H89        29.1491  -49.0928  -61.0808 H         1 UNK         0.0848 
     90 H90        27.8349  -49.8972  -60.2393 H         1 UNK         0.0848 
     91 H91        27.4874  -48.3818  -57.9466 H         1 UNK         0.3144 
     92 H92        25.9040  -46.5726  -56.3571 H         1 UNK         0.0727 
     93 H93        23.4824  -47.1137  -55.9571 H         1 UNK         0.0790 
     94 H94        23.3141  -47.5711  -57.6526 H         1 UNK         0.0790 
     95 H95        23.7065  -45.9154  -57.2208 H         1 UNK         0.0790 
     96 H96        26.4323  -48.6155  -55.7551 H         1 UNK         0.3215 
     97 H97        25.1554  -51.8368  -56.2346 H         1 UNK         0.0863 
     98 H98        27.8996  -50.7754  -57.1136 H         1 UNK         0.0808 
     99 H99        26.8047  -51.7284  -58.1049 H         1 UNK         0.0808 
    100 H100       27.5265  -52.4406  -56.6719 H         1 UNK         0.0808 
    101 H101       27.2918  -50.4322  -54.7523 H         1 UNK         0.3118 
    102 H102       25.4361  -50.1866  -51.7730 H         1 UNK         0.0546 
    103 H103       27.1836  -51.6432  -50.7837 H         1 UNK         0.0828 
    104 H104       27.6003  -52.2737  -52.3777 H         1 UNK         0.0828 
    105 H105       26.0230  -52.6094  -51.6778 H         1 UNK         0.0828 
    106 H106       28.2348  -49.8863  -52.4501 H         1 UNK         0.3005 
    107 H107       28.0155  -46.4584  -53.3372 H         1 UNK         0.1257 
    108 H108       28.8627  -47.8134  -50.7260 H         1 UNK         0.0775 
    109 H109       27.9581  -46.3385  -50.8850 H         1 UNK         0.0775 
    110 H110       28.7805  -44.2166  -50.7508 H         1 UNK         0.0840 
    111 H111       30.4139  -43.8378  -50.2798 H         1 UNK         0.0840 
    112 H112       30.3293  -47.8732  -53.1241 H         1 UNK         0.2987 
    113 H113       30.5095  -49.8499  -55.8912 H         1 UNK         0.0785 
    114 H114       31.1293  -46.8761  -56.2896 H         1 UNK         0.0798 
    115 H115       31.8994  -48.2017  -57.1630 H         1 UNK         0.0798 
    116 H116       30.1835  -47.8883  -57.3665 H         1 UNK         0.0798 
    117 H117       32.5197  -48.1848  -54.6885 H         1 UNK         0.3079 
    118 H118       33.1674  -49.3223  -51.9813 H         1 UNK         0.0794 
    119 H119       33.1157  -51.7839  -51.8657 H         1 UNK         0.0786 
    120 H120       34.7831  -51.2410  -51.9270 H         1 UNK         0.0786 
    121 H121       34.0211  -51.9197  -53.3651 H         1 UNK         0.0786 
    122 H122       34.7789  -48.3064  -53.0803 H         1 UNK         0.3032 
    123 H123       36.9187  -48.6139  -55.1457 H         1 UNK         0.1094 
    124 H124       34.7666  -47.8997  -57.2121 H         1 UNK         0.0794 
    125 H125       36.4566  -47.4049  -57.3050 H         1 UNK         0.0794 
    126 H126       36.0320  -49.1044  -57.3967 H         1 UNK         0.0794 
    127 H127       36.5676  -46.6141  -54.2601 H         1 UNK         0.3016 
@<TRIPOS>BOND
     1    1    2 1    
     2    1   67 1    
     3    1   68 1    
     4    1   69 1    
     5    2    3 2    
     6    2    4 am   BACKBONE|DICT|INTERRES
     7    4    5 1    
     8    4   70 1    
     9    5    6 1    
    10    5   65 1    
    11    5   71 1    
    12    6    7 1    
    13    6   72 1    
    14    6   73 1    
    15    7    8 1    
    16    8    9 1    
    17    8   74 1    
    18    8   75 1    
    19    9   10 ar   
    20    9   14 ar   
    21   10   11 ar   
    22   10   76 1    
    23   11   12 ar   
    24   11   48 1    
    25   12   13 ar   
    26   12   77 1    
    27   13   14 ar   
    28   13   15 1    
    29   14   78 1    
    30   15   16 1    
    31   15   79 1    
    32   15   80 1    
    33   16   17 1    
    34   17   18 1    
    35   17   81 1    
    36   17   82 1    
    37   18   19 1    
    38   18   22 1    
    39   18   83 1    
    40   19   20 am   BACKBONE|DICT|INTERRES
    41   19   21 2    
    42   20   84 1    
    43   20   85 1    
    44   22   23 am   BACKBONE|DICT|INTERRES
    45   22   86 1    
    46   23   24 2    
    47   23   25 1    
    48   25   26 1    
    49   25   27 1    
    50   25   87 1    
    51   26   88 1    
    52   26   89 1    
    53   26   90 1    
    54   27   28 am   BACKBONE|DICT|INTERRES
    55   27   91 1    
    56   28   29 2    
    57   28   30 1    
    58   30   31 1    
    59   30   32 1    
    60   30   92 1    
    61   31   93 1    
    62   31   94 1    
    63   31   95 1    
    64   32   33 am   BACKBONE|DICT|INTERRES
    65   32   96 1    
    66   33   34 2    
    67   33   35 1    
    68   35   36 1    
    69   35   37 1    
    70   35   97 1    
    71   36   98 1    
    72   36   99 1    
    73   36  100 1    
    74   37   38 am   BACKBONE|DICT|INTERRES
    75   37  101 1    
    76   38   39 2    
    77   38   40 1    
    78   40   41 1    
    79   40   42 1    
    80   40  102 1    
    81   41  103 1    
    82   41  104 1    
    83   41  105 1    
    84   42   43 am   BACKBONE|DICT|INTERRES
    85   42  106 1    
    86   43   44 2    
    87   43   45 1    
    88   45   46 1    
    89   45   49 1    
    90   45  107 1    
    91   46   47 1    
    92   46  108 1    
    93   46  109 1    
    94   47   48 1    
    95   48  110 1    
    96   48  111 1    
    97   49   50 am   BACKBONE|DICT|INTERRES
    98   49  112 1    
    99   50   51 2    
   100   50   52 1    
   101   52   53 1    
   102   52   54 1    
   103   52  113 1    
   104   53  114 1    
   105   53  115 1    
   106   53  116 1    
   107   54   55 am   BACKBONE|DICT|INTERRES
   108   54  117 1    
   109   55   56 2    
   110   55   57 1    
   111   57   58 1    
   112   57   59 1    
   113   57  118 1    
   114   58  119 1    
   115   58  120 1    
   116   58  121 1    
   117   59   60 am   BACKBONE|DICT|INTERRES
   118   59  122 1    
   119   60   61 2    
   120   60   62 1    
   121   62   63 1    
   122   62   64 1    
   123   62  123 1    
   124   63  124 1    
   125   63  125 1    
   126   63  126 1    
   127   64   65 am   BACKBONE|DICT|INTERRES
   128   64  127 1    
   129   65   66 2    
@<TRIPOS>SUBSTRUCTURE
     1 UNK         1 GROUP             0       ****    0 ROOT    
