@<TRIPOS>MOLECULE
3R134
127   129    1
SMALL
USER_CHARGES


@<TRIPOS>ATOM
      1 CA         36.9282  -47.3848  -51.2258 C.3       0 UNK        -0.1968 
      2 C          35.5076  -47.1214  -51.7014 C.2       0 UNK         0.4852 
      3 O          34.9125  -47.9777  -52.3584 O.2       0 UNK        -0.5359 
      4 N          34.9470  -45.9535  -51.3587 N.am      1 UNK        -0.4300 
      5 CA         33.6121  -45.4746  -51.7520 C.3       1 UNK         0.0863 
      6 C6         33.5114  -43.9295  -51.6574 C.3       11 UNK        -0.0953 
      7 S7         34.7402  -43.0945  -52.7180 S.3       11 UNK        -0.2369 
      8 C8         33.7297  -41.8446  -53.5738 C.3       11 UNK         0.0226 
      9 C9         32.7680  -42.4529  -54.5867 C.ar      11 UNK        -0.0699 
     10 C10        33.2557  -43.0265  -55.7637 C.ar      11 UNK        -0.0804 
     11 C11        32.3771  -43.5452  -56.7195 C.ar      11 UNK        -0.0871 
     12 C12        30.9993  -43.4945  -56.4859 C.ar      11 UNK        -0.1008 
     13 C13        30.4924  -42.9080  -55.3168 C.ar      11 UNK        -0.0735 
     14 C14        31.3882  -42.4000  -54.3703 C.ar      11 UNK        -0.0945 
     15 C15        28.9940  -42.8214  -55.0225 C.3       11 UNK         0.0169 
     16 S16        27.9220  -42.8037  -56.5009 S.3       11 UNK        -0.2669 
     17 C17        26.2973  -43.1494  -55.7435 C.3       11 UNK        -0.0850 
     18 CA         26.0518  -44.6744  -55.5746 C.3       10 UNK         0.0855 
     19 C          24.7748  -45.0040  -54.7557 C.2       10 UNK         0.5543 
     20 N          24.7830  -46.1150  -54.0329 N.am      10 UNK        -0.7343 
     21 O          23.7965  -44.2602  -54.7519 O.2       10 UNK        -0.5027 
     22 N          26.1255  -45.4182  -56.8430 N.am      10 UNK        -0.4495 
     23 C          25.2593  -45.3468  -57.8629 C.2       10 UNK         0.4903 
     24 O          24.2435  -44.6517  -57.8673 O.2       10 UNK        -0.4860 
     25 CA         25.5845  -46.1811  -59.1085 C.3       9 UNK         0.0227 
     26 CB         26.5479  -45.4091  -60.0267 C.3       9 UNK        -0.1964 
     27 N          26.1769  -47.4765  -58.7634 N.am      9 UNK        -0.4231 
     28 C          25.5636  -48.6572  -58.9181 C.2       9 UNK         0.5014 
     29 O          24.4062  -48.7857  -59.3211 O.2       9 UNK        -0.5270 
     30 CA         26.3858  -49.9183  -58.6075 C.3       8 UNK         0.0284 
     31 CB         27.3907  -50.2010  -59.7369 C.3       8 UNK        -0.1977 
     32 N          27.0940  -49.8659  -57.3285 N.am      8 UNK        -0.4342 
     33 C          26.5083  -49.9453  -56.1255 C.2       8 UNK         0.5039 
     34 O          25.2903  -50.0013  -55.9557 O.2       8 UNK        -0.5547 
     35 CA         27.4409  -49.9861  -54.9049 C.3       7 UNK         0.0281 
     36 CB         28.0739  -51.3776  -54.7377 C.3       7 UNK        -0.1963 
     37 N          28.4910  -48.9749  -55.0156 N.am      7 UNK        -0.4444 
     38 C          28.3707  -47.7236  -54.5555 C.2       7 UNK         0.5104 
     39 O          27.4123  -47.3329  -53.8892 O.2       7 UNK        -0.5100 
     40 CA         29.4823  -46.7227  -54.9186 C.3       6 UNK         0.0396 
     41 CB         30.4149  -46.4684  -53.7303 C.3       6 UNK        -0.1801 
     42 N          30.2677  -47.1196  -56.0863 N.am      6 UNK        -0.4747 
     43 C          29.8022  -47.0690  -57.3418 C.2       6 UNK         0.5012 
     44 O          28.6589  -46.7092  -57.6258 O.2       6 UNK        -0.5003 
     45 CA         30.7344  -47.5668  -58.4637 C.3       5 UNK         0.0782 
     46 C46        31.5950  -46.4170  -59.0446 C.3       11 UNK        -0.0868 
     47 S47        33.0141  -45.9333  -57.9923 S.3       11 UNK        -0.2515 
     48 C48        32.9222  -44.1151  -58.0216 C.3       11 UNK         0.0199 
     49 N          31.5461  -48.7259  -58.0766 N.am      5 UNK        -0.4607 
     50 C          31.0768  -49.8882  -57.6075 C.2       4 UNK         0.5031 
     51 O          29.8771  -50.1289  -57.4679 O.2       4 UNK        -0.5119 
     52 CA         32.1014  -50.9480  -57.1654 C.3       4 UNK         0.0263 
     53 CB         33.5632  -50.6168  -57.5470 C.3       4 UNK        -0.1967 
     54 N          31.9936  -51.2205  -55.7266 N.am      4 UNK        -0.4237 
     55 C          32.1203  -50.3305  -54.7310 C.2       3 UNK         0.4908 
     56 O          32.3366  -49.1266  -54.9011 O.2       3 UNK        -0.5102 
     57 CA         31.9828  -50.8848  -53.3067 C.3       3 UNK         0.0241 
     58 CB         33.1238  -51.8622  -52.9658 C.3       3 UNK        -0.1971 
     59 N          32.0099  -49.7695  -52.3670 N.am      3 UNK        -0.4139 
     60 C          31.3652  -49.7053  -51.1954 C.2       2 UNK         0.5016 
     61 O          30.6571  -50.6152  -50.7617 O.2       2 UNK        -0.5319 
     62 CA         31.5375  -48.4233  -50.3576 C.3       2 UNK         0.0286 
     63 CB         31.9319  -48.7401  -48.9031 C.3       2 UNK        -0.1963 
     64 N          32.5332  -47.5235  -50.9421 N.am      2 UNK        -0.4790 
     65 C          32.4752  -46.1893  -50.9793 C.2       1 UNK         0.5024 
     66 O          31.5740  -45.5385  -50.4479 O.2       1 UNK        -0.4888 
     67 H67        37.5821  -47.5582  -52.0800 H         1 UNK         0.0892 
     68 H68        37.3298  -46.5472  -50.6558 H         1 UNK         0.0892 
     69 H69        36.9531  -48.2707  -50.5919 H         1 UNK         0.0892 
     70 H70        35.4818  -45.3023  -50.8017 H         1 UNK         0.3107 
     71 H71        33.4659  -45.7393  -52.8019 H         1 UNK         0.0773 
     72 H72        32.5135  -43.5961  -51.9465 H         1 UNK         0.0680 
     73 H73        33.6584  -43.5947  -50.6290 H         1 UNK         0.0680 
     74 H74        33.1938  -41.2499  -52.8323 H         1 UNK         0.0650 
     75 H75        34.3967  -41.1540  -54.0916 H         1 UNK         0.0650 
     76 H76        34.3228  -43.0565  -55.9381 H         1 UNK         0.1397 
     77 H77        30.3272  -43.9073  -57.2248 H         1 UNK         0.1363 
     78 H78        31.0080  -41.9502  -53.4631 H         1 UNK         0.1355 
     79 H79        28.7844  -41.9155  -54.4515 H         1 UNK         0.0707 
     80 H80        28.7233  -43.6562  -54.3771 H         1 UNK         0.0707 
     81 H81        25.5203  -42.7039  -56.3669 H         1 UNK         0.1034 
     82 H82        26.2382  -42.6390  -54.7804 H         1 UNK         0.1034 
     83 H83        26.8806  -45.0414  -54.9747 H         1 UNK         0.0482 
     84 H84        25.6208  -46.6895  -53.9920 H         1 UNK         0.3460 
     85 H85        23.9740  -46.3596  -53.4848 H         1 UNK         0.3460 
     86 H86        26.9621  -45.9762  -56.9705 H         1 UNK         0.2989 
     87 H87        24.6517  -46.3244  -59.6579 H         1 UNK         0.0559 
     88 H88        27.4981  -45.1960  -59.5354 H         1 UNK         0.0848 
     89 H89        26.1170  -44.4525  -60.3255 H         1 UNK         0.0848 
     90 H90        26.7597  -45.9677  -60.9383 H         1 UNK         0.0848 
     91 H91        27.1235  -47.4509  -58.3939 H         1 UNK         0.3144 
     92 H92        25.6905  -50.7597  -58.5649 H         1 UNK         0.0727 
     93 H93        28.1413  -49.4145  -59.8190 H         1 UNK         0.0790 
     94 H94        26.8854  -50.2727  -60.7011 H         1 UNK         0.0790 
     95 H95        27.9135  -51.1439  -59.5745 H         1 UNK         0.0790 
     96 H96        28.1122  -49.8846  -57.3744 H         1 UNK         0.3215 
     97 H97        26.8343  -49.7928  -54.0170 H         1 UNK         0.0863 
     98 H98        28.7269  -51.6371  -55.5713 H         1 UNK         0.0808 
     99 H99        27.3049  -52.1487  -54.6751 H         1 UNK         0.0808 
    100 H100       28.6597  -51.4337  -53.8206 H         1 UNK         0.0808 
    101 H101       29.2853  -49.1988  -55.6017 H         1 UNK         0.3118 
    102 H102       28.9997  -45.7781  -55.1631 H         1 UNK         0.0546 
    103 H103       31.1504  -45.6985  -53.9655 H         1 UNK         0.0828 
    104 H104       30.9492  -47.3714  -53.4423 H         1 UNK         0.0828 
    105 H105       29.8542  -46.1261  -52.8593 H         1 UNK         0.0828 
    106 H106       31.2003  -47.4817  -55.9190 H         1 UNK         0.3005 
    107 H107       30.0747  -47.9103  -59.2632 H         1 UNK         0.1257 
    108 H108       30.9683  -45.5503  -59.2635 H         1 UNK         0.0775 
    109 H109       32.0016  -46.7273  -60.0083 H         1 UNK         0.0775 
    110 H110       33.9260  -43.7284  -58.2039 H         1 UNK         0.0840 
    111 H111       32.3212  -43.7672  -58.8626 H         1 UNK         0.0840 
    112 H112       32.5460  -48.5878  -58.1070 H         1 UNK         0.2987 
    113 H113       31.8244  -51.8686  -57.6813 H         1 UNK         0.0785 
    114 H114       34.2300  -51.4344  -57.2728 H         1 UNK         0.0798 
    115 H115       33.6681  -50.4705  -58.6229 H         1 UNK         0.0798 
    116 H116       33.9302  -49.7179  -57.0498 H         1 UNK         0.0798 
    117 H117       31.7837  -52.1790  -55.4850 H         1 UNK         0.3079 
    118 H118       31.0233  -51.4005  -53.2375 H         1 UNK         0.0794 
    119 H119       33.0292  -52.2398  -51.9475 H         1 UNK         0.0786 
    120 H120       34.1000  -51.3830  -53.0535 H         1 UNK         0.0786 
    121 H121       33.1220  -52.7278  -53.6289 H         1 UNK         0.0786 
    122 H122       32.5165  -48.9636  -52.7123 H         1 UNK         0.3032 
    123 H123       30.5625  -47.9303  -50.3555 H         1 UNK         0.1094 
    124 H124       32.0017  -47.8315  -48.3048 H         1 UNK         0.0794 
    125 H125       31.1923  -49.3836  -48.4247 H         1 UNK         0.0794 
    126 H126       32.8940  -49.2510  -48.8513 H         1 UNK         0.0794 
    127 H127       33.3444  -47.9558  -51.3818 H         1 UNK         0.3016 
@<TRIPOS>BOND
     1    1    2 1    
     2    1   67 1    
     3    1   68 1    
     4    1   69 1    
     5    2    3 2    
     6    2    4 am   BACKBONE|DICT|INTERRES
     7    4    5 1    
     8    4   70 1    
     9    5    6 1    
    10    5   65 1    
    11    5   71 1    
    12    6    7 1    
    13    6   72 1    
    14    6   73 1    
    15    7    8 1    
    16    8    9 1    
    17    8   74 1    
    18    8   75 1    
    19    9   10 ar   
    20    9   14 ar   
    21   10   11 ar   
    22   10   76 1    
    23   11   12 ar   
    24   11   48 1    
    25   12   13 ar   
    26   12   77 1    
    27   13   14 ar   
    28   13   15 1    
    29   14   78 1    
    30   15   16 1    
    31   15   79 1    
    32   15   80 1    
    33   16   17 1    
    34   17   18 1    
    35   17   81 1    
    36   17   82 1    
    37   18   19 1    
    38   18   22 1    
    39   18   83 1    
    40   19   20 am   BACKBONE|DICT|INTERRES
    41   19   21 2    
    42   20   84 1    
    43   20   85 1    
    44   22   23 am   BACKBONE|DICT|INTERRES
    45   22   86 1    
    46   23   24 2    
    47   23   25 1    
    48   25   26 1    
    49   25   27 1    
    50   25   87 1    
    51   26   88 1    
    52   26   89 1    
    53   26   90 1    
    54   27   28 am   BACKBONE|DICT|INTERRES
    55   27   91 1    
    56   28   29 2    
    57   28   30 1    
    58   30   31 1    
    59   30   32 1    
    60   30   92 1    
    61   31   93 1    
    62   31   94 1    
    63   31   95 1    
    64   32   33 am   BACKBONE|DICT|INTERRES
    65   32   96 1    
    66   33   34 2    
    67   33   35 1    
    68   35   36 1    
    69   35   37 1    
    70   35   97 1    
    71   36   98 1    
    72   36   99 1    
    73   36  100 1    
    74   37   38 am   BACKBONE|DICT|INTERRES
    75   37  101 1    
    76   38   39 2    
    77   38   40 1    
    78   40   41 1    
    79   40   42 1    
    80   40  102 1    
    81   41  103 1    
    82   41  104 1    
    83   41  105 1    
    84   42   43 am   BACKBONE|DICT|INTERRES
    85   42  106 1    
    86   43   44 2    
    87   43   45 1    
    88   45   46 1    
    89   45   49 1    
    90   45  107 1    
    91   46   47 1    
    92   46  108 1    
    93   46  109 1    
    94   47   48 1    
    95   48  110 1    
    96   48  111 1    
    97   49   50 am   BACKBONE|DICT|INTERRES
    98   49  112 1    
    99   50   51 2    
   100   50   52 1    
   101   52   53 1    
   102   52   54 1    
   103   52  113 1    
   104   53  114 1    
   105   53  115 1    
   106   53  116 1    
   107   54   55 am   BACKBONE|DICT|INTERRES
   108   54  117 1    
   109   55   56 2    
   110   55   57 1    
   111   57   58 1    
   112   57   59 1    
   113   57  118 1    
   114   58  119 1    
   115   58  120 1    
   116   58  121 1    
   117   59   60 am   BACKBONE|DICT|INTERRES
   118   59  122 1    
   119   60   61 2    
   120   60   62 1    
   121   62   63 1    
   122   62   64 1    
   123   62  123 1    
   124   63  124 1    
   125   63  125 1    
   126   63  126 1    
   127   64   65 am   BACKBONE|DICT|INTERRES
   128   64  127 1    
   129   65   66 2    
@<TRIPOS>SUBSTRUCTURE
     1 UNK         1 GROUP             0       ****    0 ROOT    
