@<TRIPOS>MOLECULE
3R134
127   129    1
SMALL
USER_CHARGES


@<TRIPOS>ATOM
      1 CA         39.2729  -44.1222  -52.3660 C.3       0 UNK        -0.1968 
      2 C          38.2413  -44.2255  -53.4801 C.2       0 UNK         0.4852 
      3 O          38.6096  -44.2267  -54.6562 O.2       0 UNK        -0.5359 
      4 N          36.9543  -44.3028  -53.1195 N.am      1 UNK        -0.4300 
      5 CA         35.8310  -44.4843  -54.0430 C.3       1 UNK         0.0863 
      6 C6         34.4832  -44.0787  -53.3914 C.3       11 UNK        -0.0953 
      7 S7         34.1041  -44.9509  -51.8290 S.3       11 UNK        -0.2369 
      8 C8         32.7635  -46.0695  -52.3428 C.3       11 UNK         0.0226 
      9 C9         31.4386  -45.3337  -52.4786 C.ar      11 UNK        -0.0699 
     10 C10        30.6853  -45.0528  -51.3362 C.ar      11 UNK        -0.0804 
     11 C11        29.4609  -44.3869  -51.4379 C.ar      11 UNK        -0.0871 
     12 C12        29.0198  -43.9498  -52.6888 C.ar      11 UNK        -0.1008 
     13 C13        29.7403  -44.2627  -53.8463 C.ar      11 UNK        -0.0735 
     14 C14        30.9507  -44.9564  -53.7348 C.ar      11 UNK        -0.0945 
     15 C15        29.1975  -43.8622  -55.2123 C.3       11 UNK         0.0169 
     16 S16        27.5097  -44.4985  -55.4729 S.3       11 UNK        -0.2669 
     17 C17        27.0904  -43.7725  -57.0943 C.3       11 UNK        -0.0850 
     18 CA         26.6037  -44.8489  -58.1050 C.3       10 UNK         0.0855 
     19 C          26.0183  -44.2442  -59.4190 C.2       10 UNK         0.5543 
     20 N          26.0944  -44.9335  -60.5527 N.am      10 UNK        -0.7343 
     21 O          25.4575  -43.1511  -59.4093 O.2       10 UNK        -0.5027 
     22 N          27.5857  -45.9239  -58.3197 N.am      10 UNK        -0.4495 
     23 C          28.7797  -45.8031  -58.9158 C.2       10 UNK         0.4903 
     24 O          29.2696  -44.7317  -59.2740 O.2       10 UNK        -0.4860 
     25 CA         29.5547  -47.1059  -59.1874 C.3       9 UNK         0.0227 
     26 CB         30.6822  -47.2722  -58.1588 C.3       9 UNK        -0.1964 
     27 N          28.7240  -48.3168  -59.1900 N.am      9 UNK        -0.4231 
     28 C          27.7011  -48.5808  -60.0139 C.2       9 UNK         0.5014 
     29 O          27.3287  -47.8141  -60.9038 O.2       9 UNK        -0.5270 
     30 CA         26.9251  -49.8917  -59.7812 C.3       8 UNK         0.0284 
     31 CB         27.6135  -51.0752  -60.4888 C.3       8 UNK        -0.1977 
     32 N          26.6380  -50.1959  -58.3684 N.am      8 UNK        -0.4342 
     33 C          27.4903  -50.5028  -57.3802 C.2       8 UNK         0.5039 
     34 O          28.7138  -50.5441  -57.5185 O.2       8 UNK        -0.5547 
     35 CA         26.8644  -50.7288  -55.9954 C.3       7 UNK         0.0281 
     36 CB         27.8338  -51.4066  -55.0103 C.3       7 UNK        -0.1963 
     37 N          26.4160  -49.4505  -55.4384 N.am      7 UNK        -0.4444 
     38 C          25.2284  -48.8864  -55.7023 C.2       7 UNK         0.5104 
     39 O          24.4034  -49.4021  -56.4591 O.2       7 UNK        -0.5100 
     40 CA         24.9072  -47.5119  -55.0773 C.3       6 UNK         0.0396 
     41 CB         23.4589  -47.4371  -54.5506 C.3       6 UNK        -0.1801 
     42 N          25.8666  -47.0520  -54.0659 N.am      6 UNK        -0.4747 
     43 C          26.0999  -47.5709  -52.8508 C.2       6 UNK         0.5012 
     44 O          25.4957  -48.5347  -52.3767 O.2       6 UNK        -0.5003 
     45 CA         27.2424  -46.9193  -52.0453 C.3       5 UNK         0.0782 
     46 C46        26.7273  -46.3155  -50.7085 C.3       11 UNK        -0.0868 
     47 S47        28.0264  -45.7877  -49.5310 S.3       11 UNK        -0.2515 
     48 C48        28.5943  -44.1889  -50.2035 C.3       11 UNK         0.0199 
     49 N          28.3770  -47.8313  -51.8744 N.am      5 UNK        -0.4607 
     50 C          29.0743  -48.3891  -52.8717 C.2       4 UNK         0.5031 
     51 O          28.7805  -48.2798  -54.0665 O.2       4 UNK        -0.5119 
     52 CA         30.3028  -49.2110  -52.4639 C.3       4 UNK         0.0263 
     53 CB         29.9065  -50.4787  -51.6833 C.3       4 UNK        -0.1967 
     54 N          31.0286  -49.5838  -53.6727 N.am      4 UNK        -0.4237 
     55 C          32.3340  -49.8507  -53.7703 C.2       3 UNK         0.4908 
     56 O          33.1153  -49.8054  -52.8186 O.2       3 UNK        -0.5102 
     57 CA         32.8655  -50.2786  -55.1546 C.3       3 UNK         0.0241 
     58 CB         31.7666  -50.4941  -56.2206 C.3       3 UNK        -0.1971 
     59 N          33.9047  -49.3759  -55.6623 N.am      3 UNK        -0.4139 
     60 C          33.7902  -48.0593  -55.8850 C.2       2 UNK         0.5016 
     61 O          32.7644  -47.4040  -55.6933 O.2       2 UNK        -0.5319 
     62 CA         35.0239  -47.3569  -56.4727 C.3       2 UNK         0.0286 
     63 CB         34.8456  -47.1389  -57.9845 C.3       2 UNK        -0.1963 
     64 N          35.2408  -46.0637  -55.8232 N.am      2 UNK        -0.4790 
     65 C          35.7922  -45.9198  -54.6117 C.2       1 UNK         0.5024 
     66 O          36.2405  -46.8621  -53.9523 O.2       1 UNK        -0.4888 
     67 H67        38.8089  -44.1165  -51.3799 H         1 UNK         0.0892 
     68 H68        39.9602  -44.9665  -52.4122 H         1 UNK         0.0892 
     69 H69        39.8512  -43.2049  -52.4736 H         1 UNK         0.0892 
     70 H70        36.7092  -44.3349  -52.1400 H         1 UNK         0.3107 
     71 H71        35.9971  -43.8103  -54.8865 H         1 UNK         0.0773 
     72 H72        33.6647  -44.2062  -54.1004 H         1 UNK         0.0680 
     73 H73        34.5018  -43.0111  -53.1677 H         1 UNK         0.0680 
     74 H74        32.6668  -46.8601  -51.5977 H         1 UNK         0.0650 
     75 H75        33.0345  -46.5662  -53.2731 H         1 UNK         0.0650 
     76 H76        31.0401  -45.3762  -50.3671 H         1 UNK         0.1397 
     77 H77        28.0787  -43.4233  -52.7734 H         1 UNK         0.1363 
     78 H78        31.5132  -45.2067  -54.6243 H         1 UNK         0.1355 
     79 H79        29.1925  -42.7739  -55.2871 H         1 UNK         0.0707 
     80 H80        29.8416  -44.2335  -56.0115 H         1 UNK         0.0707 
     81 H81        26.3113  -43.0277  -56.9230 H         1 UNK         0.1034 
     82 H82        27.9434  -43.2254  -57.4983 H         1 UNK         0.1034 
     83 H83        25.7459  -45.3412  -57.6471 H         1 UNK         0.0482 
     84 H84        26.5449  -45.8402  -60.5816 H         1 UNK         0.3460 
     85 H85        25.7039  -44.5407  -61.3944 H         1 UNK         0.3460 
     86 H86        27.2828  -46.8514  -58.0669 H         1 UNK         0.2989 
     87 H87        30.0036  -47.0153  -60.1783 H         1 UNK         0.0559 
     88 H88        31.3312  -46.3956  -58.1393 H         1 UNK         0.0848 
     89 H89        31.3120  -48.1307  -58.3913 H         1 UNK         0.0848 
     90 H90        30.2902  -47.4032  -57.1488 H         1 UNK         0.0848 
     91 H91        28.9410  -49.0344  -58.4980 H         1 UNK         0.3144 
     92 H92        25.9494  -49.7582  -60.2514 H         1 UNK         0.0727 
     93 H93        27.0276  -51.9893  -60.3926 H         1 UNK         0.0790 
     94 H94        28.6082  -51.2710  -60.0872 H         1 UNK         0.0790 
     95 H95        27.7297  -50.8755  -61.5549 H         1 UNK         0.0790 
     96 H96        25.6622  -50.1117  -58.1020 H         1 UNK         0.3215 
     97 H97        26.0083  -51.3962  -56.1187 H         1 UNK         0.0863 
     98 H98        27.3691  -51.5556  -54.0356 H         1 UNK         0.0808 
     99 H99        28.7399  -50.8215  -54.8648 H         1 UNK         0.0808 
    100 H100       28.1392  -52.3863  -55.3797 H         1 UNK         0.0808 
    101 H101       27.0904  -48.9413  -54.8731 H         1 UNK         0.3118 
    102 H102       24.9873  -46.7959  -55.8953 H         1 UNK         0.0546 
    103 H103       23.2670  -48.1821  -53.7782 H         1 UNK         0.0828 
    104 H104       22.7412  -47.6144  -55.3526 H         1 UNK         0.0828 
    105 H105       23.2376  -46.4548  -54.1337 H         1 UNK         0.0828 
    106 H106       26.4581  -46.2877  -54.3729 H         1 UNK         0.3005 
    107 H107       27.6185  -46.0979  -52.6500 H         1 UNK         0.1257 
    108 H108       26.1149  -47.0474  -50.1781 H         1 UNK         0.0775 
    109 H109       26.0697  -45.4674  -50.9076 H         1 UNK         0.0775 
    110 H110       27.7329  -43.5542  -50.4176 H         1 UNK         0.0840 
    111 H111       29.1767  -43.6705  -49.4405 H         1 UNK         0.0840 
    112 H112       28.6743  -47.9758  -50.9208 H         1 UNK         0.2987 
    113 H113       30.9386  -48.5783  -51.8420 H         1 UNK         0.0785 
    114 H114       30.7841  -51.0607  -51.4013 H         1 UNK         0.0798 
    115 H115       29.2531  -51.1249  -52.2701 H         1 UNK         0.0798 
    116 H116       29.3789  -50.2301  -50.7619 H         1 UNK         0.0798 
    117 H117       30.4717  -49.5261  -54.5169 H         1 UNK         0.3079 
    118 H118       33.3534  -51.2418  -54.9980 H         1 UNK         0.0794 
    119 H119       31.0553  -51.2594  -55.9073 H         1 UNK         0.0786 
    120 H120       32.1943  -50.8293  -57.1654 H         1 UNK         0.0786 
    121 H121       31.2026  -49.5840  -56.4224 H         1 UNK         0.0786 
    122 H122       34.8023  -49.8093  -55.8283 H         1 UNK         0.3032 
    123 H123       35.9058  -47.9827  -56.3154 H         1 UNK         0.1094 
    124 H124       35.7234  -46.6650  -58.4242 H         1 UNK         0.0794 
    125 H125       34.6977  -48.0885  -58.5007 H         1 UNK         0.0794 
    126 H126       33.9797  -46.5126  -58.2034 H         1 UNK         0.0794 
    127 H127       34.8506  -45.2563  -56.2877 H         1 UNK         0.3016 
@<TRIPOS>BOND
     1    1    2 1    
     2    1   67 1    
     3    1   68 1    
     4    1   69 1    
     5    2    3 2    
     6    2    4 am   BACKBONE|DICT|INTERRES
     7    4    5 1    
     8    4   70 1    
     9    5    6 1    
    10    5   65 1    
    11    5   71 1    
    12    6    7 1    
    13    6   72 1    
    14    6   73 1    
    15    7    8 1    
    16    8    9 1    
    17    8   74 1    
    18    8   75 1    
    19    9   10 ar   
    20    9   14 ar   
    21   10   11 ar   
    22   10   76 1    
    23   11   12 ar   
    24   11   48 1    
    25   12   13 ar   
    26   12   77 1    
    27   13   14 ar   
    28   13   15 1    
    29   14   78 1    
    30   15   16 1    
    31   15   79 1    
    32   15   80 1    
    33   16   17 1    
    34   17   18 1    
    35   17   81 1    
    36   17   82 1    
    37   18   19 1    
    38   18   22 1    
    39   18   83 1    
    40   19   20 am   BACKBONE|DICT|INTERRES
    41   19   21 2    
    42   20   84 1    
    43   20   85 1    
    44   22   23 am   BACKBONE|DICT|INTERRES
    45   22   86 1    
    46   23   24 2    
    47   23   25 1    
    48   25   26 1    
    49   25   27 1    
    50   25   87 1    
    51   26   88 1    
    52   26   89 1    
    53   26   90 1    
    54   27   28 am   BACKBONE|DICT|INTERRES
    55   27   91 1    
    56   28   29 2    
    57   28   30 1    
    58   30   31 1    
    59   30   32 1    
    60   30   92 1    
    61   31   93 1    
    62   31   94 1    
    63   31   95 1    
    64   32   33 am   BACKBONE|DICT|INTERRES
    65   32   96 1    
    66   33   34 2    
    67   33   35 1    
    68   35   36 1    
    69   35   37 1    
    70   35   97 1    
    71   36   98 1    
    72   36   99 1    
    73   36  100 1    
    74   37   38 am   BACKBONE|DICT|INTERRES
    75   37  101 1    
    76   38   39 2    
    77   38   40 1    
    78   40   41 1    
    79   40   42 1    
    80   40  102 1    
    81   41  103 1    
    82   41  104 1    
    83   41  105 1    
    84   42   43 am   BACKBONE|DICT|INTERRES
    85   42  106 1    
    86   43   44 2    
    87   43   45 1    
    88   45   46 1    
    89   45   49 1    
    90   45  107 1    
    91   46   47 1    
    92   46  108 1    
    93   46  109 1    
    94   47   48 1    
    95   48  110 1    
    96   48  111 1    
    97   49   50 am   BACKBONE|DICT|INTERRES
    98   49  112 1    
    99   50   51 2    
   100   50   52 1    
   101   52   53 1    
   102   52   54 1    
   103   52  113 1    
   104   53  114 1    
   105   53  115 1    
   106   53  116 1    
   107   54   55 am   BACKBONE|DICT|INTERRES
   108   54  117 1    
   109   55   56 2    
   110   55   57 1    
   111   57   58 1    
   112   57   59 1    
   113   57  118 1    
   114   58  119 1    
   115   58  120 1    
   116   58  121 1    
   117   59   60 am   BACKBONE|DICT|INTERRES
   118   59  122 1    
   119   60   61 2    
   120   60   62 1    
   121   62   63 1    
   122   62   64 1    
   123   62  123 1    
   124   63  124 1    
   125   63  125 1    
   126   63  126 1    
   127   64   65 am   BACKBONE|DICT|INTERRES
   128   64  127 1    
   129   65   66 2    
@<TRIPOS>SUBSTRUCTURE
     1 UNK         1 GROUP             0       ****    0 ROOT    
