@<TRIPOS>MOLECULE
3R134
127   129    1
SMALL
USER_CHARGES


@<TRIPOS>ATOM
      1 CA         37.8555  -44.3860  -51.5470 C.3       0 UNK        -0.1968 
      2 C          37.2608  -45.4880  -52.4116 C.2       0 UNK         0.4852 
      3 O          37.9204  -46.5012  -52.6475 O.2       0 UNK        -0.5359 
      4 N          36.0230  -45.2936  -52.8872 N.am      1 UNK        -0.4300 
      5 CA         35.2840  -46.2463  -53.7258 C.3       1 UNK         0.0863 
      6 C6         34.0331  -45.5980  -54.3678 C.3       11 UNK        -0.0953 
      7 S7         34.4672  -44.2966  -55.5711 S.3       11 UNK        -0.2369 
      8 C8         33.8137  -42.7896  -54.7847 C.3       11 UNK         0.0226 
      9 C9         32.2923  -42.7834  -54.7407 C.ar      11 UNK        -0.0699 
     10 C10        31.6231  -43.1036  -53.5558 C.ar      11 UNK        -0.0804 
     11 C11        30.2271  -43.1214  -53.5118 C.ar      11 UNK        -0.0871 
     12 C12        29.4983  -42.7859  -54.6552 C.ar      11 UNK        -0.1008 
     13 C13        30.1547  -42.4602  -55.8444 C.ar      11 UNK        -0.0735 
     14 C14        31.5527  -42.4593  -55.8832 C.ar      11 UNK        -0.0945 
     15 C15        29.3419  -42.1347  -57.0853 C.3       11 UNK         0.0169 
     16 S16        28.8643  -43.6621  -57.9433 S.3       11 UNK        -0.2669 
     17 C17        27.5722  -43.0441  -59.0751 C.3       11 UNK        -0.0850 
     18 CA         26.1294  -43.2392  -58.5319 C.3       10 UNK         0.0855 
     19 C          25.0960  -42.7272  -59.5776 C.2       10 UNK         0.5543 
     20 N          24.3643  -43.5959  -60.2652 N.am      10 UNK        -0.7343 
     21 O          24.9637  -41.5209  -59.7682 O.2       10 UNK        -0.5027 
     22 N          25.9137  -44.6166  -58.0624 N.am      10 UNK        -0.4495 
     23 C          24.8503  -45.0834  -57.3956 C.2       10 UNK         0.4903 
     24 O          23.8996  -44.3791  -57.0537 O.2       10 UNK        -0.4860 
     25 CA         24.8504  -46.5816  -57.0181 C.3       9 UNK         0.0227 
     26 CB         23.5153  -47.2687  -57.3729 C.3       9 UNK        -0.1964 
     27 N          25.9966  -47.3443  -57.5385 N.am      9 UNK        -0.4231 
     28 C          26.2937  -47.6113  -58.8208 C.2       9 UNK         0.5014 
     29 O          25.5934  -47.2730  -59.7757 O.2       9 UNK        -0.5270 
     30 CA         27.6277  -48.3214  -59.0938 C.3       8 UNK         0.0284 
     31 CB         28.7629  -47.2906  -59.2033 C.3       8 UNK        -0.1977 
     32 N          27.9637  -49.3219  -58.0780 N.am      8 UNK        -0.4342 
     33 C          27.4019  -50.5387  -58.0231 C.2       8 UNK         0.5039 
     34 O          26.5481  -50.9346  -58.8182 O.2       8 UNK        -0.5547 
     35 CA         27.8732  -51.4826  -56.9041 C.3       7 UNK         0.0281 
     36 CB         29.2446  -52.0863  -57.2446 C.3       7 UNK        -0.1963 
     37 N          27.9190  -50.8340  -55.5922 N.am      7 UNK        -0.4444 
     38 C          26.8330  -50.4240  -54.9204 C.2       7 UNK         0.5104 
     39 O          25.6784  -50.5667  -55.3235 O.2       7 UNK        -0.5100 
     40 CA         27.0712  -49.7287  -53.5704 C.3       6 UNK         0.0396 
     41 CB         27.2100  -50.7633  -52.4424 C.3       6 UNK        -0.1801 
     42 N          28.2426  -48.8524  -53.5771 N.am      6 UNK        -0.4747 
     43 C          28.3523  -47.7294  -54.3026 C.2       6 UNK         0.5012 
     44 O          27.4827  -47.3183  -55.0712 O.2       6 UNK        -0.5003 
     45 CA         29.6923  -46.9745  -54.1827 C.3       5 UNK         0.0782 
     46 C46        29.8414  -46.2895  -52.7965 C.3       11 UNK        -0.0868 
     47 S47        28.5474  -45.0483  -52.4340 S.3       11 UNK        -0.2515 
     48 C48        29.5054  -43.5130  -52.2322 C.3       11 UNK         0.0199 
     49 N          30.8121  -47.8850  -54.4592 N.am      5 UNK        -0.4607 
     50 C          30.9902  -48.5488  -55.6155 C.2       4 UNK         0.5031 
     51 O          30.2890  -48.3819  -56.6118 O.2       4 UNK        -0.5119 
     52 CA         32.0771  -49.6383  -55.6662 C.3       4 UNK         0.0263 
     53 CB         33.3388  -49.1466  -56.3910 C.3       4 UNK        -0.1967 
     54 N          32.4112  -50.1880  -54.3500 N.am      4 UNK        -0.4237 
     55 C          31.5563  -50.9249  -53.6210 C.2       3 UNK         0.4908 
     56 O          30.4318  -51.2397  -54.0152 O.2       3 UNK        -0.5102 
     57 CA         31.9923  -51.3549  -52.2074 C.3       3 UNK         0.0241 
     58 CB         32.4965  -52.8065  -52.2236 C.3       3 UNK        -0.1971 
     59 N          33.0100  -50.4956  -51.5932 N.am      3 UNK        -0.4139 
     60 C          32.8704  -49.1862  -51.3428 C.2       2 UNK         0.5016 
     61 O          31.8508  -48.5491  -51.6103 O.2       2 UNK        -0.5319 
     62 CA         34.0831  -48.4353  -50.7566 C.3       2 UNK         0.0286 
     63 CB         35.2668  -49.3466  -50.3574 C.3       2 UNK        -0.1963 
     64 N          34.5420  -47.3763  -51.6656 N.am      2 UNK        -0.4790 
     65 C          34.8879  -47.5232  -52.9558 C.2       1 UNK         0.5024 
     66 O          34.8960  -48.6070  -53.5425 O.2       1 UNK        -0.4888 
     67 H67        38.0930  -44.7736  -50.5567 H         1 UNK         0.0892 
     68 H68        38.7752  -44.0122  -51.9964 H         1 UNK         0.0892 
     69 H69        37.1717  -43.5458  -51.4272 H         1 UNK         0.0892 
     70 H70        35.5443  -44.4304  -52.6769 H         1 UNK         0.3107 
     71 H71        35.9510  -46.5638  -54.5307 H         1 UNK         0.0773 
     72 H72        33.4364  -46.3347  -54.9053 H         1 UNK         0.0680 
     73 H73        33.3763  -45.2016  -53.5946 H         1 UNK         0.0680 
     74 H74        34.1621  -41.9222  -55.3472 H         1 UNK         0.0650 
     75 H75        34.2329  -42.6901  -53.7825 H         1 UNK         0.0650 
     76 H76        32.1901  -43.3532  -52.6696 H         1 UNK         0.1397 
     77 H77        28.4170  -42.8040  -54.6260 H         1 UNK         0.1363 
     78 H78        32.0661  -42.2197  -56.8045 H         1 UNK         0.1355 
     79 H79        28.4478  -41.5761  -56.8034 H         1 UNK         0.0707 
     80 H80        29.9099  -41.4959  -57.7635 H         1 UNK         0.0707 
     81 H81        27.7606  -41.9914  -59.2959 H         1 UNK         0.1034 
     82 H82        27.6903  -43.5716  -60.0239 H         1 UNK         0.1034 
     83 H83        26.0182  -42.5978  -57.6558 H         1 UNK         0.0482 
     84 H84        23.6962  -43.2588  -60.9402 H         1 UNK         0.3460 
     85 H85        24.4777  -44.5867  -60.1137 H         1 UNK         0.3460 
     86 H86        26.6547  -45.2657  -58.2767 H         1 UNK         0.2989 
     87 H87        24.9509  -46.6115  -55.9324 H         1 UNK         0.0559 
     88 H88        23.3019  -47.2195  -58.4409 H         1 UNK         0.0848 
     89 H89        22.6812  -46.7930  -56.8558 H         1 UNK         0.0848 
     90 H90        23.5206  -48.3184  -57.0787 H         1 UNK         0.0848 
     91 H91        26.6692  -47.6106  -56.8231 H         1 UNK         0.3144 
     92 H92        27.5422  -48.8252  -60.0592 H         1 UNK         0.0727 
     93 H93        28.9085  -46.7488  -58.2679 H         1 UNK         0.0790 
     94 H94        28.5507  -46.5525  -59.9782 H         1 UNK         0.0790 
     95 H95        29.7085  -47.7682  -59.4606 H         1 UNK         0.0790 
     96 H96        28.6927  -49.0707  -57.4129 H         1 UNK         0.3215 
     97 H97        27.1555  -52.3033  -56.8368 H         1 UNK         0.0863 
     98 H98        29.6208  -52.7135  -56.4360 H         1 UNK         0.0808 
     99 H99        29.9850  -51.3145  -57.4492 H         1 UNK         0.0808 
    100 H100       29.1790  -52.7103  -58.1368 H         1 UNK         0.0808 
    101 H101       28.8265  -50.7422  -55.1456 H         1 UNK         0.3118 
    102 H102       26.1963  -49.1105  -53.3577 H         1 UNK         0.0546 
    103 H103       26.3341  -51.4121  -52.3999 H         1 UNK         0.0828 
    104 H104       27.3011  -50.2806  -51.4693 H         1 UNK         0.0828 
    105 H105       28.0818  -51.4034  -52.5832 H         1 UNK         0.0828 
    106 H106       29.0299  -49.1405  -53.0135 H         1 UNK         0.3005 
    107 H107       29.7028  -46.1979  -54.9519 H         1 UNK         0.1257 
    108 H108       30.8236  -45.8217  -52.7217 H         1 UNK         0.0775 
    109 H109       29.8089  -47.0303  -51.9967 H         1 UNK         0.0775 
    110 H110       28.8276  -42.7082  -51.9441 H         1 UNK         0.0840 
    111 H111       30.2058  -43.6350  -51.4043 H         1 UNK         0.0840 
    112 H112       31.3958  -48.1211  -53.6649 H         1 UNK         0.2987 
    113 H113       31.6761  -50.4603  -56.2589 H         1 UNK         0.0785 
    114 H114       33.8130  -48.3139  -55.8781 H         1 UNK         0.0798 
    115 H115       33.0978  -48.8078  -57.3996 H         1 UNK         0.0798 
    116 H116       34.0768  -49.9433  -56.4857 H         1 UNK         0.0798 
    117 H117       33.3105  -49.9282  -53.9581 H         1 UNK         0.3079 
    118 H118       31.1038  -51.3093  -51.5741 H         1 UNK         0.0794 
    119 H119       33.4044  -52.9120  -52.8189 H         1 UNK         0.0786 
    120 H120       31.7474  -53.4753  -52.6505 H         1 UNK         0.0786 
    121 H121       32.7099  -53.1650  -51.2163 H         1 UNK         0.0786 
    122 H122       33.8951  -50.9285  -51.3725 H         1 UNK         0.3032 
    123 H123       33.7216  -47.9434  -49.8519 H         1 UNK         0.1094 
    124 H124       36.0629  -48.7645  -49.8927 H         1 UNK         0.0794 
    125 H125       34.9610  -50.0992  -49.6292 H         1 UNK         0.0794 
    126 H126       35.7019  -49.8633  -51.2138 H         1 UNK         0.0794 
    127 H127       34.5473  -46.4421  -51.2813 H         1 UNK         0.3016 
@<TRIPOS>BOND
     1    1    2 1    
     2    1   67 1    
     3    1   68 1    
     4    1   69 1    
     5    2    3 2    
     6    2    4 am   BACKBONE|DICT|INTERRES
     7    4    5 1    
     8    4   70 1    
     9    5    6 1    
    10    5   65 1    
    11    5   71 1    
    12    6    7 1    
    13    6   72 1    
    14    6   73 1    
    15    7    8 1    
    16    8    9 1    
    17    8   74 1    
    18    8   75 1    
    19    9   10 ar   
    20    9   14 ar   
    21   10   11 ar   
    22   10   76 1    
    23   11   12 ar   
    24   11   48 1    
    25   12   13 ar   
    26   12   77 1    
    27   13   14 ar   
    28   13   15 1    
    29   14   78 1    
    30   15   16 1    
    31   15   79 1    
    32   15   80 1    
    33   16   17 1    
    34   17   18 1    
    35   17   81 1    
    36   17   82 1    
    37   18   19 1    
    38   18   22 1    
    39   18   83 1    
    40   19   20 am   BACKBONE|DICT|INTERRES
    41   19   21 2    
    42   20   84 1    
    43   20   85 1    
    44   22   23 am   BACKBONE|DICT|INTERRES
    45   22   86 1    
    46   23   24 2    
    47   23   25 1    
    48   25   26 1    
    49   25   27 1    
    50   25   87 1    
    51   26   88 1    
    52   26   89 1    
    53   26   90 1    
    54   27   28 am   BACKBONE|DICT|INTERRES
    55   27   91 1    
    56   28   29 2    
    57   28   30 1    
    58   30   31 1    
    59   30   32 1    
    60   30   92 1    
    61   31   93 1    
    62   31   94 1    
    63   31   95 1    
    64   32   33 am   BACKBONE|DICT|INTERRES
    65   32   96 1    
    66   33   34 2    
    67   33   35 1    
    68   35   36 1    
    69   35   37 1    
    70   35   97 1    
    71   36   98 1    
    72   36   99 1    
    73   36  100 1    
    74   37   38 am   BACKBONE|DICT|INTERRES
    75   37  101 1    
    76   38   39 2    
    77   38   40 1    
    78   40   41 1    
    79   40   42 1    
    80   40  102 1    
    81   41  103 1    
    82   41  104 1    
    83   41  105 1    
    84   42   43 am   BACKBONE|DICT|INTERRES
    85   42  106 1    
    86   43   44 2    
    87   43   45 1    
    88   45   46 1    
    89   45   49 1    
    90   45  107 1    
    91   46   47 1    
    92   46  108 1    
    93   46  109 1    
    94   47   48 1    
    95   48  110 1    
    96   48  111 1    
    97   49   50 am   BACKBONE|DICT|INTERRES
    98   49  112 1    
    99   50   51 2    
   100   50   52 1    
   101   52   53 1    
   102   52   54 1    
   103   52  113 1    
   104   53  114 1    
   105   53  115 1    
   106   53  116 1    
   107   54   55 am   BACKBONE|DICT|INTERRES
   108   54  117 1    
   109   55   56 2    
   110   55   57 1    
   111   57   58 1    
   112   57   59 1    
   113   57  118 1    
   114   58  119 1    
   115   58  120 1    
   116   58  121 1    
   117   59   60 am   BACKBONE|DICT|INTERRES
   118   59  122 1    
   119   60   61 2    
   120   60   62 1    
   121   62   63 1    
   122   62   64 1    
   123   62  123 1    
   124   63  124 1    
   125   63  125 1    
   126   63  126 1    
   127   64   65 am   BACKBONE|DICT|INTERRES
   128   64  127 1    
   129   65   66 2    
@<TRIPOS>SUBSTRUCTURE
     1 UNK         1 GROUP             0       ****    0 ROOT    
