@<TRIPOS>MOLECULE
3R134
127   129    1
SMALL
USER_CHARGES


@<TRIPOS>ATOM
      1 CA         33.9012  -44.9812  -47.0942 C.3       0 UNK        -0.1968 
      2 C          33.5260  -45.4551  -48.4914 C.2       0 UNK         0.4852 
      3 O          32.6300  -46.2904  -48.6230 O.2       0 UNK        -0.5359 
      4 N          34.2058  -44.9176  -49.5165 N.am      1 UNK        -0.4300 
      5 CA         34.0657  -45.2179  -50.9516 C.3       1 UNK         0.0863 
      6 C6         32.6239  -45.0264  -51.5069 C.3       11 UNK        -0.0953 
      7 S7         31.9257  -43.3747  -51.1664 S.3       11 UNK        -0.2369 
      8 C8         32.3920  -42.4384  -52.6593 C.3       11 UNK         0.0226 
      9 C9         31.7780  -42.9997  -53.9365 C.ar      11 UNK        -0.0699 
     10 C10        32.6011  -43.3732  -55.0035 C.ar      11 UNK        -0.0804 
     11 C11        32.0525  -43.8754  -56.1876 C.ar      11 UNK        -0.0871 
     12 C12        30.6634  -44.0059  -56.2929 C.ar      11 UNK        -0.1008 
     13 C13        29.8284  -43.6396  -55.2345 C.ar      11 UNK        -0.0735 
     14 C14        30.3912  -43.1289  -54.0618 C.ar      11 UNK        -0.0945 
     15 C15        28.3214  -43.8120  -55.3457 C.3       11 UNK         0.0169 
     16 S16        27.5253  -42.3568  -56.0954 S.3       11 UNK        -0.2669 
     17 C17        27.5985  -42.7571  -57.8781 C.3       11 UNK        -0.0850 
     18 CA         26.2448  -43.2899  -58.4188 C.3       10 UNK         0.0855 
     19 C          26.2577  -43.4368  -59.9697 C.2       10 UNK         0.5543 
     20 N          25.8858  -44.5754  -60.5445 N.am      10 UNK        -0.7343 
     21 O          26.6033  -42.4892  -60.6709 O.2       10 UNK        -0.5027 
     22 N          25.8293  -44.5106  -57.7117 N.am      10 UNK        -0.4495 
     23 C          24.5644  -44.8571  -57.4519 C.2       10 UNK         0.4903 
     24 O          23.5886  -44.1582  -57.7310 O.2       10 UNK        -0.4860 
     25 CA         24.3687  -46.2243  -56.7670 C.3       9 UNK         0.0227 
     26 CB         22.9224  -46.7500  -56.8844 C.3       9 UNK        -0.1964 
     27 N          25.3250  -47.2473  -57.2137 N.am      9 UNK        -0.4231 
     28 C          25.5083  -47.6956  -58.4686 C.2       9 UNK         0.5014 
     29 O          24.9247  -47.2287  -59.4481 O.2       9 UNK        -0.5270 
     30 CA         26.5198  -48.8379  -58.6930 C.3       8 UNK         0.0284 
     31 CB         27.6737  -48.3786  -59.6012 C.3       8 UNK        -0.1977 
     32 N          27.0631  -49.3842  -57.4461 N.am      8 UNK        -0.4342 
     33 C          26.4041  -50.2311  -56.6412 C.2       8 UNK         0.5039 
     34 O          25.3009  -50.7055  -56.9148 O.2       8 UNK        -0.5547 
     35 CA         27.0538  -50.5972  -55.2931 C.3       7 UNK         0.0281 
     36 CB         27.6716  -52.0027  -55.3670 C.3       7 UNK        -0.1963 
     37 N          28.0642  -49.6431  -54.8212 N.am      7 UNK        -0.4444 
     38 C          27.8360  -48.3555  -54.5208 C.2       7 UNK         0.5104 
     39 O          26.7305  -47.8191  -54.6052 O.2       7 UNK        -0.5100 
     40 CA         29.0624  -47.5064  -54.1412 C.3       6 UNK         0.0396 
     41 CB         29.4662  -47.7357  -52.6775 C.3       6 UNK        -0.1801 
     42 N          30.2109  -47.7587  -55.0144 N.am      6 UNK        -0.4747 
     43 C          30.2238  -47.5568  -56.3407 C.2       6 UNK         0.5012 
     44 O          29.2736  -47.0844  -56.9645 O.2       6 UNK        -0.5003 
     45 CA         31.4735  -48.0352  -57.1036 C.3       5 UNK         0.0782 
     46 C46        32.6406  -47.0207  -57.0443 C.3       11 UNK        -0.0868 
     47 S47        32.4676  -45.7076  -58.2946 S.3       11 UNK        -0.2515 
     48 C48        32.9764  -44.2317  -57.3505 C.3       11 UNK         0.0199 
     49 N          31.8895  -49.3530  -56.6245 N.am      5 UNK        -0.4607 
     50 C          31.2967  -50.5047  -56.9634 C.2       4 UNK         0.5031 
     51 O          30.3594  -50.5838  -57.7568 O.2       4 UNK        -0.5119 
     52 CA         31.8340  -51.7853  -56.2997 C.3       4 UNK         0.0263 
     53 CB         32.9169  -52.4303  -57.1791 C.3       4 UNK        -0.1967 
     54 N          32.3708  -51.5604  -54.9539 N.am      4 UNK        -0.4237 
     55 C          31.6258  -51.2144  -53.8950 C.2       3 UNK         0.4908 
     56 O          30.4064  -51.0582  -53.9369 O.2       3 UNK        -0.5102 
     57 CA         32.3722  -50.9494  -52.5779 C.3       3 UNK         0.0241 
     58 CB         32.6885  -52.2708  -51.8590 C.3       3 UNK        -0.1971 
     59 N          33.6003  -50.1579  -52.7253 N.am      3 UNK        -0.4139 
     60 C          33.6623  -48.9367  -53.2734 C.2       2 UNK         0.5016 
     61 O          32.7149  -48.3831  -53.8358 O.2       2 UNK        -0.5319 
     62 CA         35.0012  -48.1930  -53.1862 C.3       2 UNK         0.0286 
     63 CB         35.6434  -48.0564  -54.5761 C.3       2 UNK        -0.1963 
     64 N          34.7490  -46.8624  -52.6336 N.am      2 UNK        -0.4790 
     65 C          34.6238  -46.6115  -51.3236 C.2       1 UNK         0.5024 
     66 O          34.9306  -47.4305  -50.4532 O.2       1 UNK        -0.4888 
     67 H67        34.6970  -44.2367  -47.1137 H         1 UNK         0.0892 
     68 H68        33.0350  -44.5373  -46.6040 H         1 UNK         0.0892 
     69 H69        34.2400  -45.8233  -46.4914 H         1 UNK         0.0892 
     70 H70        34.9363  -44.2531  -49.3035 H         1 UNK         0.3107 
     71 H71        34.7094  -44.4964  -51.4574 H         1 UNK         0.0773 
     72 H72        32.5904  -45.2051  -52.5822 H         1 UNK         0.0680 
     73 H73        31.9471  -45.7650  -51.0756 H         1 UNK         0.0680 
     74 H74        33.4805  -42.4107  -52.7276 H         1 UNK         0.0650 
     75 H75        32.0657  -41.4046  -52.5389 H         1 UNK         0.0650 
     76 H76        33.6732  -43.2610  -54.9161 H         1 UNK         0.1397 
     77 H77        30.2308  -44.4031  -57.1993 H         1 UNK         0.1363 
     78 H78        29.7509  -42.8389  -53.2400 H         1 UNK         0.1355 
     79 H79        28.0846  -44.7107  -55.9167 H         1 UNK         0.0707 
     80 H80        27.8944  -43.9679  -54.3539 H         1 UNK         0.0707 
     81 H81        27.8825  -41.8416  -58.4005 H         1 UNK         0.1034 
     82 H82        28.3960  -43.4717  -58.0784 H         1 UNK         0.1034 
     83 H83        25.5020  -42.5158  -58.2169 H         1 UNK         0.0482 
     84 H84        25.8984  -44.6410  -61.5496 H         1 UNK         0.3460 
     85 H85        25.5620  -45.3642  -59.9963 H         1 UNK         0.3460 
     86 H86        26.5630  -45.1611  -57.4747 H         1 UNK         0.2989 
     87 H87        24.5750  -46.0624  -55.7080 H         1 UNK         0.0559 
     88 H88        22.6258  -46.8873  -57.9248 H         1 UNK         0.0848 
     89 H89        22.2137  -46.0543  -56.4332 H         1 UNK         0.0848 
     90 H90        22.8052  -47.7057  -56.3735 H         1 UNK         0.0848 
     91 H91        25.8811  -47.6613  -56.4716 H         1 UNK         0.3144 
     92 H92        25.9890  -49.6384  -59.2126 H         1 UNK         0.0727 
     93 H93        28.4317  -49.1548  -59.7104 H         1 UNK         0.0790 
     94 H94        27.3067  -48.1413  -60.6006 H         1 UNK         0.0790 
     95 H95        28.1610  -47.4813  -59.2214 H         1 UNK         0.0790 
     96 H96        27.9639  -49.0296  -57.1503 H         1 UNK         0.3215 
     97 H97        26.2542  -50.6160  -54.5497 H         1 UNK         0.0863 
     98 H98        28.0337  -52.3295  -54.3921 H         1 UNK         0.0808 
     99 H99        28.5078  -52.0367  -56.0659 H         1 UNK         0.0808 
    100 H100       26.9375  -52.7377  -55.6999 H         1 UNK         0.0808 
    101 H101       28.9986  -50.0165  -54.6663 H         1 UNK         0.3118 
    102 H102       28.7892  -46.4565  -54.2533 H         1 UNK         0.0546 
    103 H103       30.2962  -47.0893  -52.3927 H         1 UNK         0.0828 
    104 H104       29.7704  -48.7669  -52.4977 H         1 UNK         0.0828 
    105 H105       28.6366  -47.5160  -52.0044 H         1 UNK         0.0828 
    106 H106       31.0572  -48.1128  -54.5704 H         1 UNK         0.3005 
    107 H107       31.1791  -48.1524  -58.1499 H         1 UNK         0.1257 
    108 H108       33.5846  -47.5232  -57.2605 H         1 UNK         0.0775 
    109 H109       32.7505  -46.5975  -56.0438 H         1 UNK         0.0775 
    110 H110       33.9968  -44.3869  -56.9962 H         1 UNK         0.0840 
    111 H111       33.0140  -43.3809  -58.0319 H         1 UNK         0.0840 
    112 H112       32.5990  -49.3632  -55.9053 H         1 UNK         0.2987 
    113 H113       31.0003  -52.4858  -56.2164 H         1 UNK         0.0785 
    114 H114       32.5356  -52.6318  -58.1813 H         1 UNK         0.0798 
    115 H115       33.2504  -53.3819  -56.7647 H         1 UNK         0.0798 
    116 H116       33.7896  -51.7848  -57.2864 H         1 UNK         0.0798 
    117 H117       33.3677  -51.6631  -54.8309 H         1 UNK         0.3079 
    118 H118       31.6983  -50.3736  -51.9399 H         1 UNK         0.0794 
    119 H119       33.1030  -52.0932  -50.8663 H         1 UNK         0.0786 
    120 H120       33.4025  -52.8769  -52.4179 H         1 UNK         0.0786 
    121 H121       31.7857  -52.8692  -51.7271 H         1 UNK         0.0786 
    122 H122       34.4301  -50.5360  -52.2907 H         1 UNK         0.3032 
    123 H123       35.6881  -48.7422  -52.5380 H         1 UNK         0.1094 
    124 H124       35.0153  -47.4860  -55.2601 H         1 UNK         0.0794 
    125 H125       36.6093  -47.5547  -54.5157 H         1 UNK         0.0794 
    126 H126       35.8148  -49.0350  -55.0267 H         1 UNK         0.0794 
    127 H127       34.4497  -46.1601  -53.2944 H         1 UNK         0.3016 
@<TRIPOS>BOND
     1    1    2 1    
     2    1   67 1    
     3    1   68 1    
     4    1   69 1    
     5    2    3 2    
     6    2    4 am   BACKBONE|DICT|INTERRES
     7    4    5 1    
     8    4   70 1    
     9    5    6 1    
    10    5   65 1    
    11    5   71 1    
    12    6    7 1    
    13    6   72 1    
    14    6   73 1    
    15    7    8 1    
    16    8    9 1    
    17    8   74 1    
    18    8   75 1    
    19    9   10 ar   
    20    9   14 ar   
    21   10   11 ar   
    22   10   76 1    
    23   11   12 ar   
    24   11   48 1    
    25   12   13 ar   
    26   12   77 1    
    27   13   14 ar   
    28   13   15 1    
    29   14   78 1    
    30   15   16 1    
    31   15   79 1    
    32   15   80 1    
    33   16   17 1    
    34   17   18 1    
    35   17   81 1    
    36   17   82 1    
    37   18   19 1    
    38   18   22 1    
    39   18   83 1    
    40   19   20 am   BACKBONE|DICT|INTERRES
    41   19   21 2    
    42   20   84 1    
    43   20   85 1    
    44   22   23 am   BACKBONE|DICT|INTERRES
    45   22   86 1    
    46   23   24 2    
    47   23   25 1    
    48   25   26 1    
    49   25   27 1    
    50   25   87 1    
    51   26   88 1    
    52   26   89 1    
    53   26   90 1    
    54   27   28 am   BACKBONE|DICT|INTERRES
    55   27   91 1    
    56   28   29 2    
    57   28   30 1    
    58   30   31 1    
    59   30   32 1    
    60   30   92 1    
    61   31   93 1    
    62   31   94 1    
    63   31   95 1    
    64   32   33 am   BACKBONE|DICT|INTERRES
    65   32   96 1    
    66   33   34 2    
    67   33   35 1    
    68   35   36 1    
    69   35   37 1    
    70   35   97 1    
    71   36   98 1    
    72   36   99 1    
    73   36  100 1    
    74   37   38 am   BACKBONE|DICT|INTERRES
    75   37  101 1    
    76   38   39 2    
    77   38   40 1    
    78   40   41 1    
    79   40   42 1    
    80   40  102 1    
    81   41  103 1    
    82   41  104 1    
    83   41  105 1    
    84   42   43 am   BACKBONE|DICT|INTERRES
    85   42  106 1    
    86   43   44 2    
    87   43   45 1    
    88   45   46 1    
    89   45   49 1    
    90   45  107 1    
    91   46   47 1    
    92   46  108 1    
    93   46  109 1    
    94   47   48 1    
    95   48  110 1    
    96   48  111 1    
    97   49   50 am   BACKBONE|DICT|INTERRES
    98   49  112 1    
    99   50   51 2    
   100   50   52 1    
   101   52   53 1    
   102   52   54 1    
   103   52  113 1    
   104   53  114 1    
   105   53  115 1    
   106   53  116 1    
   107   54   55 am   BACKBONE|DICT|INTERRES
   108   54  117 1    
   109   55   56 2    
   110   55   57 1    
   111   57   58 1    
   112   57   59 1    
   113   57  118 1    
   114   58  119 1    
   115   58  120 1    
   116   58  121 1    
   117   59   60 am   BACKBONE|DICT|INTERRES
   118   59  122 1    
   119   60   61 2    
   120   60   62 1    
   121   62   63 1    
   122   62   64 1    
   123   62  123 1    
   124   63  124 1    
   125   63  125 1    
   126   63  126 1    
   127   64   65 am   BACKBONE|DICT|INTERRES
   128   64  127 1    
   129   65   66 2    
@<TRIPOS>SUBSTRUCTURE
     1 UNK         1 GROUP             0       ****    0 ROOT    
