@<TRIPOS>MOLECULE
3R134
127   129    1
SMALL
USER_CHARGES


@<TRIPOS>ATOM
      1 CA         29.9785  -44.8056  -53.2287 C.3       0 UNK        -0.1968 
      2 C          31.0986  -44.9932  -52.2249 C.2       0 UNK         0.4852 
      3 O          30.8847  -45.5911  -51.1704 O.2       0 UNK        -0.5359 
      4 N          32.2928  -44.4882  -52.5504 N.am      1 UNK        -0.4300 
      5 CA         33.4744  -44.5070  -51.6784 C.3       1 UNK         0.0863 
      6 C6         34.3784  -43.2654  -51.8970 C.3       11 UNK        -0.0953 
      7 S7         33.4338  -41.6969  -51.9085 S.3       11 UNK        -0.2369 
      8 C8         33.6847  -41.0793  -53.6060 C.3       11 UNK         0.0226 
      9 C9         32.9976  -41.9246  -54.6748 C.ar      11 UNK        -0.0699 
     10 C10        33.6948  -42.9681  -55.2892 C.ar      11 UNK        -0.0804 
     11 C11        33.1176  -43.7115  -56.3195 C.ar      11 UNK        -0.0871 
     12 C12        31.8423  -43.3566  -56.7765 C.ar      11 UNK        -0.1008 
     13 C13        31.1116  -42.3363  -56.1577 C.ar      11 UNK        -0.0735 
     14 C14        31.6964  -41.6273  -55.0999 C.ar      11 UNK        -0.0945 
     15 C15        29.7283  -41.9470  -56.6814 C.3       11 UNK         0.0169 
     16 S16        28.6378  -43.3729  -57.0498 S.3       11 UNK        -0.2669 
     17 C17        27.4551  -43.3566  -55.6577 C.3       11 UNK        -0.0850 
     18 CA         27.0171  -44.7855  -55.2161 C.3       10 UNK         0.0855 
     19 C          26.2551  -44.8091  -53.8548 C.2       10 UNK         0.5543 
     20 N          25.5525  -45.8862  -53.5223 N.am      10 UNK        -0.7343 
     21 O          26.3140  -43.8586  -53.0788 O.2       10 UNK        -0.5027 
     22 N          26.3572  -45.5726  -56.2759 N.am      10 UNK        -0.4495 
     23 C          25.1440  -45.3324  -56.7905 C.2       10 UNK         0.4903 
     24 O          24.4792  -44.3344  -56.5069 O.2       10 UNK        -0.4860 
     25 CA         24.5117  -46.3855  -57.7261 C.3       9 UNK         0.0227 
     26 CB         23.8989  -45.7401  -58.9879 C.3       9 UNK        -0.1964 
     27 N          25.3506  -47.5419  -58.0736 N.am      9 UNK        -0.4231 
     28 C          26.4269  -47.5834  -58.8705 C.2       9 UNK         0.5014 
     29 O          26.9323  -46.5858  -59.3877 O.2       9 UNK        -0.5270 
     30 CA         27.0153  -48.9844  -59.1602 C.3       8 UNK         0.0284 
     31 CB         28.3229  -48.9179  -59.9711 C.3       8 UNK        -0.1977 
     32 N          27.2438  -49.7895  -57.9535 N.am      8 UNK        -0.4342 
     33 C          26.2986  -50.4230  -57.2455 C.2       8 UNK         0.5039 
     34 O          25.1018  -50.3910  -57.5360 O.2       8 UNK        -0.5547 
     35 CA         26.7493  -51.1720  -55.9782 C.3       7 UNK         0.0281 
     36 CB         27.4587  -52.4891  -56.3320 C.3       7 UNK        -0.1963 
     37 N          27.6161  -50.3538  -55.1291 N.am      7 UNK        -0.4444 
     38 C          27.2253  -49.2325  -54.5053 C.2       7 UNK         0.5104 
     39 O          26.0666  -48.8138  -54.4857 O.2       7 UNK        -0.5100 
     40 CA         28.3333  -48.3939  -53.8486 C.3       6 UNK         0.0396 
     41 CB         28.6944  -48.9315  -52.4565 C.3       6 UNK        -0.1801 
     42 N          29.5382  -48.2929  -54.6775 N.am      6 UNK        -0.4747 
     43 C          29.5697  -47.7990  -55.9241 C.2       6 UNK         0.5012 
     44 O          28.5855  -47.3472  -56.5019 O.2       6 UNK        -0.5003 
     45 CA         30.9093  -47.8453  -56.6745 C.3       5 UNK         0.0782 
     46 C46        31.8083  -46.6510  -56.2867 C.3       11 UNK        -0.0868 
     47 S47        32.9338  -46.2191  -57.6522 S.3       11 UNK        -0.2515 
     48 C48        33.9205  -44.8654  -56.9244 C.3       11 UNK         0.0199 
     49 N          31.5816  -49.1310  -56.4912 N.am      5 UNK        -0.4607 
     50 C          31.1258  -50.2977  -56.9644 C.2       4 UNK         0.5031 
     51 O          30.1154  -50.4092  -57.6581 O.2       4 UNK        -0.5119 
     52 CA         31.9048  -51.5550  -56.5473 C.3       4 UNK         0.0263 
     53 CB         33.1293  -51.7608  -57.4530 C.3       4 UNK        -0.1967 
     54 N          32.3281  -51.5051  -55.1447 N.am      4 UNK        -0.4237 
     55 C          31.4822  -51.5146  -54.1042 C.2       3 UNK         0.4908 
     56 O          30.2598  -51.6225  -54.2164 O.2       3 UNK        -0.5102 
     57 CA         32.1023  -51.3342  -52.7067 C.3       3 UNK         0.0241 
     58 CB         32.5992  -52.6818  -52.1590 C.3       3 UNK        -0.1971 
     59 N          33.1894  -50.3455  -52.6499 N.am      3 UNK        -0.4139 
     60 C          33.0512  -49.0479  -52.9546 C.2       2 UNK         0.5016 
     61 O          32.0113  -48.5586  -53.4023 O.2       2 UNK        -0.5319 
     62 CA         34.2730  -48.1412  -52.7592 C.3       2 UNK         0.0286 
     63 CB         35.2065  -48.2048  -53.9803 C.3       2 UNK        -0.1963 
     64 N          33.7797  -46.7774  -52.5972 N.am      2 UNK        -0.4790 
     65 C          34.2697  -45.8312  -51.7872 C.2       1 UNK         0.5024 
     66 O          35.3035  -45.9733  -51.1327 O.2       1 UNK        -0.4888 
     67 H67        30.3100  -44.2880  -54.1284 H         1 UNK         0.0892 
     68 H68        29.1677  -44.2318  -52.7813 H         1 UNK         0.0892 
     69 H69        29.5963  -45.7803  -53.5163 H         1 UNK         0.0892 
     70 H70        32.4058  -43.9835  -53.4195 H         1 UNK         0.3107 
     71 H71        33.1266  -44.4576  -50.6441 H         1 UNK         0.0773 
     72 H72        35.1116  -43.1974  -51.0913 H         1 UNK         0.0680 
     73 H73        34.9631  -43.3584  -52.8104 H         1 UNK         0.0680 
     74 H74        33.3099  -40.0560  -53.6572 H         1 UNK         0.0650 
     75 H75        34.7551  -41.0136  -53.8077 H         1 UNK         0.0650 
     76 H76        34.7057  -43.1941  -54.9808 H         1 UNK         0.1397 
     77 H77        31.4033  -43.8867  -57.6102 H         1 UNK         0.1363 
     78 H78        31.1562  -40.8146  -54.6332 H         1 UNK         0.1355 
     79 H79        29.8688  -41.3844  -57.6051 H         1 UNK         0.0707 
     80 H80        29.2280  -41.2666  -55.9910 H         1 UNK         0.0707 
     81 H81        26.5883  -42.7549  -55.9342 H         1 UNK         0.1034 
     82 H82        27.9283  -42.8382  -54.8222 H         1 UNK         0.1034 
     83 H83        27.9353  -45.3270  -55.0092 H         1 UNK         0.0482 
     84 H84        25.5343  -46.7023  -54.1197 H         1 UNK         0.3460 
     85 H85        25.0628  -45.8990  -52.6421 H         1 UNK         0.3460 
     86 H86        26.8770  -46.3905  -56.5803 H         1 UNK         0.2989 
     87 H87        23.6845  -46.8086  -57.1546 H         1 UNK         0.0559 
     88 H88        23.4115  -46.4829  -59.6192 H         1 UNK         0.0848 
     89 H89        24.6519  -45.2291  -59.5885 H         1 UNK         0.0848 
     90 H90        23.1434  -44.9994  -58.7228 H         1 UNK         0.0848 
     91 H91        25.0414  -48.4372  -57.7018 H         1 UNK         0.3144 
     92 H92        26.2806  -49.5058  -59.7772 H         1 UNK         0.0727 
     93 H93        28.7051  -49.9143  -60.1935 H         1 UNK         0.0790 
     94 H94        29.0990  -48.3740  -59.4328 H         1 UNK         0.0790 
     95 H95        28.1692  -48.4103  -60.9242 H         1 UNK         0.0790 
     96 H96        28.2109  -49.8694  -57.6506 H         1 UNK         0.3215 
     97 H97        25.8538  -51.4149  -55.4019 H         1 UNK         0.0863 
     98 H98        27.7143  -53.0534  -55.4349 H         1 UNK         0.0808 
     99 H99        28.3793  -52.3198  -56.8907 H         1 UNK         0.0808 
    100 H100       26.8174  -53.1247  -56.9440 H         1 UNK         0.0808 
    101 H101       28.5882  -50.6347  -55.0483 H         1 UNK         0.3118 
    102 H102       27.9416  -47.3858  -53.7199 H         1 UNK         0.0546 
    103 H103       27.8187  -48.9441  -51.8064 H         1 UNK         0.0828 
    104 H104       29.4481  -48.3080  -51.9744 H         1 UNK         0.0828 
    105 H105       29.0802  -49.9492  -52.5019 H         1 UNK         0.0828 
    106 H106       30.4158  -48.5893  -54.2513 H         1 UNK         0.3005 
    107 H107       30.6554  -47.7555  -57.7332 H         1 UNK         0.1257 
    108 H108       32.3864  -46.8559  -55.3856 H         1 UNK         0.0775 
    109 H109       31.1984  -45.7769  -56.0600 H         1 UNK         0.0775 
    110 H110       34.5688  -45.3024  -56.1627 H         1 UNK         0.0840 
    111 H111       34.5792  -44.4637  -57.6953 H         1 UNK         0.0840 
    112 H112       32.3916  -49.1321  -55.8908 H         1 UNK         0.2987 
    113 H113       31.2393  -52.4125  -56.6696 H         1 UNK         0.0785 
    114 H114       33.8461  -50.9438  -57.3607 H         1 UNK         0.0798 
    115 H115       32.8320  -51.8162  -58.5013 H         1 UNK         0.0798 
    116 H116       33.6464  -52.6907  -57.2155 H         1 UNK         0.0798 
    117 H117       33.3175  -51.4222  -54.9621 H         1 UNK         0.3079 
    118 H118       31.3081  -50.9768  -52.0480 H         1 UNK         0.0794 
    119 H119       33.4279  -53.0785  -52.7468 H         1 UNK         0.0786 
    120 H120       31.8023  -53.4270  -52.1748 H         1 UNK         0.0786 
    121 H121       32.9332  -52.5914  -51.1252 H         1 UNK         0.0786 
    122 H122       34.0797  -50.6730  -52.3026 H         1 UNK         0.3032 
    123 H123       34.8066  -48.4558  -51.8592 H         1 UNK         0.1094 
    124 H124       36.0661  -47.5466  -53.8529 H         1 UNK         0.0794 
    125 H125       35.5924  -49.2139  -54.1296 H         1 UNK         0.0794 
    126 H126       34.6952  -47.9093  -54.8975 H         1 UNK         0.0794 
    127 H127       32.8741  -46.6225  -53.0220 H         1 UNK         0.3016 
@<TRIPOS>BOND
     1    1    2 1    
     2    1   67 1    
     3    1   68 1    
     4    1   69 1    
     5    2    3 2    
     6    2    4 am   BACKBONE|DICT|INTERRES
     7    4    5 1    
     8    4   70 1    
     9    5    6 1    
    10    5   65 1    
    11    5   71 1    
    12    6    7 1    
    13    6   72 1    
    14    6   73 1    
    15    7    8 1    
    16    8    9 1    
    17    8   74 1    
    18    8   75 1    
    19    9   10 ar   
    20    9   14 ar   
    21   10   11 ar   
    22   10   76 1    
    23   11   12 ar   
    24   11   48 1    
    25   12   13 ar   
    26   12   77 1    
    27   13   14 ar   
    28   13   15 1    
    29   14   78 1    
    30   15   16 1    
    31   15   79 1    
    32   15   80 1    
    33   16   17 1    
    34   17   18 1    
    35   17   81 1    
    36   17   82 1    
    37   18   19 1    
    38   18   22 1    
    39   18   83 1    
    40   19   20 am   BACKBONE|DICT|INTERRES
    41   19   21 2    
    42   20   84 1    
    43   20   85 1    
    44   22   23 am   BACKBONE|DICT|INTERRES
    45   22   86 1    
    46   23   24 2    
    47   23   25 1    
    48   25   26 1    
    49   25   27 1    
    50   25   87 1    
    51   26   88 1    
    52   26   89 1    
    53   26   90 1    
    54   27   28 am   BACKBONE|DICT|INTERRES
    55   27   91 1    
    56   28   29 2    
    57   28   30 1    
    58   30   31 1    
    59   30   32 1    
    60   30   92 1    
    61   31   93 1    
    62   31   94 1    
    63   31   95 1    
    64   32   33 am   BACKBONE|DICT|INTERRES
    65   32   96 1    
    66   33   34 2    
    67   33   35 1    
    68   35   36 1    
    69   35   37 1    
    70   35   97 1    
    71   36   98 1    
    72   36   99 1    
    73   36  100 1    
    74   37   38 am   BACKBONE|DICT|INTERRES
    75   37  101 1    
    76   38   39 2    
    77   38   40 1    
    78   40   41 1    
    79   40   42 1    
    80   40  102 1    
    81   41  103 1    
    82   41  104 1    
    83   41  105 1    
    84   42   43 am   BACKBONE|DICT|INTERRES
    85   42  106 1    
    86   43   44 2    
    87   43   45 1    
    88   45   46 1    
    89   45   49 1    
    90   45  107 1    
    91   46   47 1    
    92   46  108 1    
    93   46  109 1    
    94   47   48 1    
    95   48  110 1    
    96   48  111 1    
    97   49   50 am   BACKBONE|DICT|INTERRES
    98   49  112 1    
    99   50   51 2    
   100   50   52 1    
   101   52   53 1    
   102   52   54 1    
   103   52  113 1    
   104   53  114 1    
   105   53  115 1    
   106   53  116 1    
   107   54   55 am   BACKBONE|DICT|INTERRES
   108   54  117 1    
   109   55   56 2    
   110   55   57 1    
   111   57   58 1    
   112   57   59 1    
   113   57  118 1    
   114   58  119 1    
   115   58  120 1    
   116   58  121 1    
   117   59   60 am   BACKBONE|DICT|INTERRES
   118   59  122 1    
   119   60   61 2    
   120   60   62 1    
   121   62   63 1    
   122   62   64 1    
   123   62  123 1    
   124   63  124 1    
   125   63  125 1    
   126   63  126 1    
   127   64   65 am   BACKBONE|DICT|INTERRES
   128   64  127 1    
   129   65   66 2    
@<TRIPOS>SUBSTRUCTURE
     1 UNK         1 GROUP             0       ****    0 ROOT    
