@<TRIPOS>MOLECULE
3R134
127   129    1
SMALL
USER_CHARGES


@<TRIPOS>ATOM
      1 CA         34.9624  -45.0478  -58.8507 C.3       0 UNK        -0.1968 
      2 C          34.1071  -46.1766  -58.2938 C.2       0 UNK         0.4852 
      3 O          33.6633  -47.0392  -59.0533 O.2       0 UNK        -0.5359 
      4 N          33.8697  -46.1708  -56.9768 N.am      1 UNK        -0.4300 
      5 CA         33.1362  -47.2100  -56.2524 C.3       1 UNK         0.0863 
      6 C6         32.5143  -46.6747  -54.9366 C.3       11 UNK        -0.0953 
      7 S7         33.6902  -45.8835  -53.7806 S.3       11 UNK        -0.2369 
      8 C8         33.5894  -44.1076  -54.1943 C.3       11 UNK         0.0226 
      9 C9         32.1829  -43.5400  -54.0660 C.ar      11 UNK        -0.0699 
     10 C10        31.6416  -43.2613  -52.8075 C.ar      11 UNK        -0.0804 
     11 C11        30.3382  -42.7653  -52.6899 C.ar      11 UNK        -0.0871 
     12 C12        29.5881  -42.5218  -53.8452 C.ar      11 UNK        -0.1008 
     13 C13        30.1275  -42.7772  -55.1087 C.ar      11 UNK        -0.0735 
     14 C14        31.4249  -43.2843  -55.2125 C.ar      11 UNK        -0.0945 
     15 C15        29.3204  -42.4965  -56.3670 C.3       11 UNK         0.0169 
     16 S16        28.5807  -44.0132  -57.0437 S.3       11 UNK        -0.2669 
     17 C17        27.1232  -44.2133  -55.9625 C.3       11 UNK        -0.0850 
     18 CA         26.3030  -45.5038  -56.2573 C.3       10 UNK         0.0855 
     19 C          25.1141  -45.6629  -55.2713 C.2       10 UNK         0.5543 
     20 N          25.4063  -46.0135  -54.0275 N.am      10 UNK        -0.7343 
     21 O          23.9463  -45.4668  -55.6024 O.2       10 UNK        -0.5027 
     22 N          25.9217  -45.6774  -57.6681 N.am      10 UNK        -0.4495 
     23 C          25.2883  -44.8105  -58.4704 C.2       10 UNK         0.4903 
     24 O          24.8963  -43.6982  -58.1153 O.2       10 UNK        -0.4860 
     25 CA         25.0851  -45.2335  -59.9403 C.3       9 UNK         0.0227 
     26 CB         25.7619  -44.2272  -60.8884 C.3       9 UNK        -0.1964 
     27 N          25.6238  -46.5695  -60.2198 N.am      9 UNK        -0.4231 
     28 C          24.9007  -47.6944  -60.3010 C.2       9 UNK         0.5014 
     29 O          23.6713  -47.7313  -60.2388 O.2       9 UNK        -0.5270 
     30 CA         25.6886  -49.0115  -60.4518 C.3       8 UNK         0.0284 
     31 CB         25.9308  -49.3270  -61.9370 C.3       8 UNK        -0.1977 
     32 N          26.9698  -49.0325  -59.7298 N.am      8 UNK        -0.4342 
     33 C          27.0963  -48.8944  -58.4032 C.2       8 UNK         0.5039 
     34 O          26.1418  -48.7081  -57.6423 O.2       8 UNK        -0.5547 
     35 CA         28.5182  -48.9116  -57.8279 C.3       7 UNK         0.0281 
     36 CB         29.2793  -47.6347  -58.2317 C.3       7 UNK        -0.1963 
     37 N          28.3847  -49.0062  -56.3769 N.am      7 UNK        -0.4444 
     38 C          29.3461  -49.2096  -55.4744 C.2       7 UNK         0.5104 
     39 O          30.5456  -49.3088  -55.7426 O.2       7 UNK        -0.5100 
     40 CA         28.8726  -49.3894  -54.0243 C.3       6 UNK         0.0396 
     41 CB         29.1875  -50.8110  -53.5301 C.3       6 UNK        -0.1801 
     42 N          29.4895  -48.4105  -53.1279 N.am      6 UNK        -0.4747 
     43 C          29.0762  -47.1395  -52.9947 C.2       6 UNK         0.5012 
     44 O          28.1419  -46.6760  -53.6495 O.2       6 UNK        -0.5003 
     45 CA         29.7687  -46.2527  -51.9337 C.3       5 UNK         0.0782 
     46 C46        28.8014  -45.1838  -51.3464 C.3       11 UNK        -0.0868 
     47 S47        29.6416  -43.9769  -50.2637 S.3       11 UNK        -0.2515 
     48 C48        29.7318  -42.4908  -51.3185 C.3       11 UNK         0.0199 
     49 N          30.3694  -47.0954  -50.8953 N.am      5 UNK        -0.4607 
     50 C          31.6022  -46.9610  -50.3917 C.2       4 UNK         0.5031 
     51 O          32.3631  -46.0307  -50.6535 O.2       4 UNK        -0.5119 
     52 CA         32.1011  -48.0819  -49.4573 C.3       4 UNK         0.0263 
     53 CB         30.9671  -48.8958  -48.7910 C.3       4 UNK        -0.1967 
     54 N          33.0411  -48.9745  -50.1507 N.am      4 UNK        -0.4237 
     55 C          32.8021  -49.6429  -51.2879 C.2       3 UNK         0.4908 
     56 O          31.7216  -49.6264  -51.8834 O.2       3 UNK        -0.5102 
     57 CA         33.9449  -50.4848  -51.8611 C.3       3 UNK         0.0241 
     58 CB         33.9596  -51.8867  -51.2216 C.3       3 UNK        -0.1971 
     59 N          33.7096  -50.5701  -53.2974 N.am      3 UNK        -0.4139 
     60 C          34.5335  -51.0355  -54.2393 C.2       2 UNK         0.5016 
     61 O          35.6449  -51.5172  -54.0171 O.2       2 UNK        -0.5319 
     62 CA         34.0248  -50.9142  -55.6850 C.3       2 UNK         0.0286 
     63 CB         33.0482  -52.0542  -56.0177 C.3       2 UNK        -0.1963 
     64 N          33.3691  -49.6262  -55.9330 N.am      2 UNK        -0.4790 
     65 C          34.0155  -48.4573  -56.0310 C.2       1 UNK         0.5024 
     66 O          35.2421  -48.3458  -55.9508 O.2       1 UNK        -0.4888 
     67 H67        34.4058  -44.4927  -59.6053 H         1 UNK         0.0892 
     68 H68        35.2710  -44.3476  -58.0746 H         1 UNK         0.0892 
     69 H69        35.8596  -45.4530  -59.3179 H         1 UNK         0.0892 
     70 H70        34.3138  -45.4793  -56.3922 H         1 UNK         0.3107 
     71 H71        32.3091  -47.5255  -56.8884 H         1 UNK         0.0773 
     72 H72        32.0287  -47.4874  -54.3943 H         1 UNK         0.0680 
     73 H73        31.7070  -45.9838  -55.1745 H         1 UNK         0.0680 
     74 H74        34.2564  -43.5605  -53.5265 H         1 UNK         0.0650 
     75 H75        33.9767  -43.9453  -55.2004 H         1 UNK         0.0650 
     76 H76        32.2228  -43.4626  -51.9172 H         1 UNK         0.1397 
     77 H77        28.5821  -42.1334  -53.7635 H         1 UNK         0.1363 
     78 H78        31.8385  -43.4916  -56.1902 H         1 UNK         0.1355 
     79 H79        28.5407  -41.7578  -56.1748 H         1 UNK         0.0707 
     80 H80        29.9726  -42.0584  -57.1239 H         1 UNK         0.0707 
     81 H81        27.4748  -44.2299  -54.9295 H         1 UNK         0.1034 
     82 H82        26.4937  -43.3268  -56.0535 H         1 UNK         0.1034 
     83 H83        26.9633  -46.3502  -56.0644 H         1 UNK         0.0482 
     84 H84        24.6668  -46.1243  -53.3527 H         1 UNK         0.3460 
     85 H85        26.3704  -46.2175  -53.7727 H         1 UNK         0.3460 
     86 H86        26.0824  -46.6108  -58.0223 H         1 UNK         0.2989 
     87 H87        24.0112  -45.2127  -60.1364 H         1 UNK         0.0559 
     88 H88        25.3509  -43.2254  -60.7557 H         1 UNK         0.0848 
     89 H89        26.8361  -44.1633  -60.7099 H         1 UNK         0.0848 
     90 H90        25.6094  -44.5005  -61.9326 H         1 UNK         0.0848 
     91 H91        26.6281  -46.6427  -60.2985 H         1 UNK         0.3144 
     92 H92        25.0678  -49.8071  -60.0339 H         1 UNK         0.0727 
     93 H93        26.3918  -50.3065  -62.0656 H         1 UNK         0.0790 
     94 H94        26.5767  -48.5857  -62.4093 H         1 UNK         0.0790 
     95 H95        24.9909  -49.3396  -62.4911 H         1 UNK         0.0790 
     96 H96        27.8004  -49.1813  -60.2860 H         1 UNK         0.3215 
     97 H97        29.0416  -49.7966  -58.1951 H         1 UNK         0.0863 
     98 H98        30.2923  -47.6287  -57.8373 H         1 UNK         0.0808 
     99 H99        28.7768  -46.7412  -57.8660 H         1 UNK         0.0808 
    100 H100       29.3638  -47.5436  -59.3148 H         1 UNK         0.0808 
    101 H101       27.4160  -48.9557  -56.0789 H         1 UNK         0.3118 
    102 H102       27.7886  -49.2602  -53.9816 H         1 UNK         0.0546 
    103 H103       28.6692  -51.5562  -54.1345 H         1 UNK         0.0828 
    104 H104       28.8712  -50.9527  -52.4967 H         1 UNK         0.0828 
    105 H105       30.2533  -51.0345  -53.5867 H         1 UNK         0.0828 
    106 H106       30.3052  -48.7345  -52.6099 H         1 UNK         0.3005 
    107 H107       30.5635  -45.7399  -52.4782 H         1 UNK         0.1257 
    108 H108       28.0131  -45.6679  -50.7676 H         1 UNK         0.0775 
    109 H109       28.2919  -44.6334  -52.1392 H         1 UNK         0.0775 
    110 H110       28.7287  -42.0723  -51.4143 H         1 UNK         0.0840 
    111 H111       30.3304  -41.7337  -50.8103 H         1 UNK         0.0840 
    112 H112       29.8343  -47.9105  -50.6323 H         1 UNK         0.2987 
    113 H113       32.6625  -47.5892  -48.6618 H         1 UNK         0.0785 
    114 H114       30.2643  -48.2403  -48.2746 H         1 UNK         0.0798 
    115 H115       31.3696  -49.5810  -48.0450 H         1 UNK         0.0798 
    116 H116       30.4012  -49.4926  -49.5070 H         1 UNK         0.0798 
    117 H117       33.9663  -49.0296  -49.7475 H         1 UNK         0.3079 
    118 H118       34.8951  -49.9766  -51.6860 H         1 UNK         0.0794 
    119 H119       34.0891  -51.8230  -50.1406 H         1 UNK         0.0786 
    120 H120       34.7772  -52.4960  -51.6065 H         1 UNK         0.0786 
    121 H121       33.0274  -52.4217  -51.4083 H         1 UNK         0.0786 
    122 H122       32.8149  -50.1839  -53.5755 H         1 UNK         0.3032 
    123 H123       34.8888  -50.9967  -56.3487 H         1 UNK         0.1094 
    124 H124       32.7458  -52.0224  -57.0645 H         1 UNK         0.0794 
    125 H125       33.5097  -53.0272  -55.8431 H         1 UNK         0.0794 
    126 H126       32.1449  -52.0057  -55.4080 H         1 UNK         0.0794 
    127 H127       32.3498  -49.6209  -55.9725 H         1 UNK         0.3016 
@<TRIPOS>BOND
     1    1    2 1    
     2    1   67 1    
     3    1   68 1    
     4    1   69 1    
     5    2    3 2    
     6    2    4 am   BACKBONE|DICT|INTERRES
     7    4    5 1    
     8    4   70 1    
     9    5    6 1    
    10    5   65 1    
    11    5   71 1    
    12    6    7 1    
    13    6   72 1    
    14    6   73 1    
    15    7    8 1    
    16    8    9 1    
    17    8   74 1    
    18    8   75 1    
    19    9   10 ar   
    20    9   14 ar   
    21   10   11 ar   
    22   10   76 1    
    23   11   12 ar   
    24   11   48 1    
    25   12   13 ar   
    26   12   77 1    
    27   13   14 ar   
    28   13   15 1    
    29   14   78 1    
    30   15   16 1    
    31   15   79 1    
    32   15   80 1    
    33   16   17 1    
    34   17   18 1    
    35   17   81 1    
    36   17   82 1    
    37   18   19 1    
    38   18   22 1    
    39   18   83 1    
    40   19   20 am   BACKBONE|DICT|INTERRES
    41   19   21 2    
    42   20   84 1    
    43   20   85 1    
    44   22   23 am   BACKBONE|DICT|INTERRES
    45   22   86 1    
    46   23   24 2    
    47   23   25 1    
    48   25   26 1    
    49   25   27 1    
    50   25   87 1    
    51   26   88 1    
    52   26   89 1    
    53   26   90 1    
    54   27   28 am   BACKBONE|DICT|INTERRES
    55   27   91 1    
    56   28   29 2    
    57   28   30 1    
    58   30   31 1    
    59   30   32 1    
    60   30   92 1    
    61   31   93 1    
    62   31   94 1    
    63   31   95 1    
    64   32   33 am   BACKBONE|DICT|INTERRES
    65   32   96 1    
    66   33   34 2    
    67   33   35 1    
    68   35   36 1    
    69   35   37 1    
    70   35   97 1    
    71   36   98 1    
    72   36   99 1    
    73   36  100 1    
    74   37   38 am   BACKBONE|DICT|INTERRES
    75   37  101 1    
    76   38   39 2    
    77   38   40 1    
    78   40   41 1    
    79   40   42 1    
    80   40  102 1    
    81   41  103 1    
    82   41  104 1    
    83   41  105 1    
    84   42   43 am   BACKBONE|DICT|INTERRES
    85   42  106 1    
    86   43   44 2    
    87   43   45 1    
    88   45   46 1    
    89   45   49 1    
    90   45  107 1    
    91   46   47 1    
    92   46  108 1    
    93   46  109 1    
    94   47   48 1    
    95   48  110 1    
    96   48  111 1    
    97   49   50 am   BACKBONE|DICT|INTERRES
    98   49  112 1    
    99   50   51 2    
   100   50   52 1    
   101   52   53 1    
   102   52   54 1    
   103   52  113 1    
   104   53  114 1    
   105   53  115 1    
   106   53  116 1    
   107   54   55 am   BACKBONE|DICT|INTERRES
   108   54  117 1    
   109   55   56 2    
   110   55   57 1    
   111   57   58 1    
   112   57   59 1    
   113   57  118 1    
   114   58  119 1    
   115   58  120 1    
   116   58  121 1    
   117   59   60 am   BACKBONE|DICT|INTERRES
   118   59  122 1    
   119   60   61 2    
   120   60   62 1    
   121   62   63 1    
   122   62   64 1    
   123   62  123 1    
   124   63  124 1    
   125   63  125 1    
   126   63  126 1    
   127   64   65 am   BACKBONE|DICT|INTERRES
   128   64  127 1    
   129   65   66 2    
@<TRIPOS>SUBSTRUCTURE
     1 UNK         1 GROUP             0       ****    0 ROOT    
