@<TRIPOS>MOLECULE
3R134
127   129    1
SMALL
USER_CHARGES


@<TRIPOS>ATOM
      1 CA         37.7760  -47.6543  -51.0766 C.3       0 UNK        -0.1968 
      2 C          36.4183  -47.6589  -51.7611 C.2       0 UNK         0.4852 
      3 O          35.6386  -48.5918  -51.5591 O.2       0 UNK        -0.5359 
      4 N          36.1205  -46.6166  -52.5528 N.am      1 UNK        -0.4300 
      5 CA         34.8870  -46.4554  -53.3392 C.3       1 UNK         0.0863 
      6 C6         34.9444  -45.1833  -54.2255 C.3       11 UNK        -0.0953 
      7 S7         33.7967  -45.2528  -55.6450 S.3       11 UNK        -0.2369 
      8 C8         32.4931  -44.0889  -55.1293 C.3       11 UNK         0.0226 
      9 C9         31.1222  -44.5970  -55.5456 C.ar      11 UNK        -0.0699 
     10 C10        30.3245  -45.2843  -54.6278 C.ar      11 UNK        -0.0804 
     11 C11        29.0933  -45.8166  -55.0137 C.ar      11 UNK        -0.0871 
     12 C12        28.6479  -45.6268  -56.3245 C.ar      11 UNK        -0.1008 
     13 C13        29.4063  -44.8876  -57.2418 C.ar      11 UNK        -0.0735 
     14 C14        30.6526  -44.3909  -56.8460 C.ar      11 UNK        -0.0945 
     15 C15        28.9222  -44.6297  -58.6686 C.3       11 UNK         0.0169 
     16 S16        27.1124  -44.4951  -58.8532 S.3       11 UNK        -0.2669 
     17 C17        26.7274  -42.9372  -57.9853 C.3       11 UNK        -0.0850 
     18 CA         26.2356  -43.1280  -56.5242 C.3       10 UNK         0.0855 
     19 C          25.8536  -41.7530  -55.9010 C.2       10 UNK         0.5543 
     20 N          24.5952  -41.5022  -55.5602 N.am      10 UNK        -0.7343 
     21 O          26.7175  -40.8973  -55.7257 O.2       10 UNK        -0.5027 
     22 N          25.2061  -44.1785  -56.4058 N.am      10 UNK        -0.4495 
     23 C          24.8318  -44.7597  -55.2607 C.2       10 UNK         0.4903 
     24 O          25.3382  -44.5074  -54.1675 O.2       10 UNK        -0.4860 
     25 CA         23.6901  -45.7889  -55.3288 C.3       9 UNK         0.0227 
     26 CB         22.3435  -45.1148  -55.6624 C.3       9 UNK        -0.1964 
     27 N          23.9495  -46.9461  -56.1964 N.am      9 UNK        -0.4231 
     28 C          24.0765  -46.9898  -57.5299 C.2       9 UNK         0.5014 
     29 O          24.0176  -46.0059  -58.2709 O.2       9 UNK        -0.5270 
     30 CA         24.2268  -48.3941  -58.1421 C.3       8 UNK         0.0284 
     31 CB         22.9157  -48.8287  -58.8182 C.3       8 UNK        -0.1977 
     32 N          25.3186  -48.4668  -59.1144 N.am      8 UNK        -0.4342 
     33 C          26.6156  -48.3932  -58.7944 C.2       8 UNK         0.5039 
     34 O          27.0222  -48.2643  -57.6368 O.2       8 UNK        -0.5547 
     35 CA         27.6309  -48.5255  -59.9411 C.3       7 UNK         0.0281 
     36 CB         27.3397  -47.5740  -61.1218 C.3       7 UNK        -0.1963 
     37 N          28.9629  -48.2853  -59.3913 N.am      7 UNK        -0.4444 
     38 C          30.1327  -48.5963  -59.9587 C.2       7 UNK         0.5104 
     39 O          30.2370  -49.1082  -61.0741 O.2       7 UNK        -0.5100 
     40 CA         31.4110  -48.2943  -59.1535 C.3       6 UNK         0.0396 
     41 CB         32.0902  -47.0114  -59.6600 C.3       6 UNK        -0.1801 
     42 N          31.1917  -48.1815  -57.7085 N.am      6 UNK        -0.4747 
     43 C          30.9981  -49.2261  -56.8917 C.2       6 UNK         0.5012 
     44 O          30.9217  -50.3957  -57.2767 O.2       6 UNK        -0.5003 
     45 CA         30.8579  -48.9077  -55.3898 C.3       5 UNK         0.0782 
     46 C46        29.3726  -48.9900  -54.9607 C.3       11 UNK        -0.0868 
     47 S47        29.0710  -48.0987  -53.4015 S.3       11 UNK        -0.2515 
     48 C48        28.2422  -46.5907  -54.0131 C.3       11 UNK         0.0199 
     49 N          31.7082  -49.7777  -54.5689 N.am      5 UNK        -0.4607 
     50 C          33.0399  -49.8782  -54.6674 C.2       4 UNK         0.5031 
     51 O          33.7230  -49.2234  -55.4567 O.2       4 UNK        -0.5119 
     52 CA         33.7204  -50.8633  -53.7027 C.3       4 UNK         0.0263 
     53 CB         35.2070  -51.0880  -54.0389 C.3       4 UNK        -0.1967 
     54 N          33.6222  -50.3828  -52.3262 N.am      4 UNK        -0.4237 
     55 C          32.6054  -50.6306  -51.4905 C.2       3 UNK         0.4908 
     56 O          31.6124  -51.2900  -51.8008 O.2       3 UNK        -0.5102 
     57 CA         32.7116  -50.0379  -50.0784 C.3       3 UNK         0.0241 
     58 CB         33.8005  -50.7549  -49.2616 C.3       3 UNK        -0.1971 
     59 N          33.0168  -48.6102  -50.1535 N.am      3 UNK        -0.4139 
     60 C          32.1349  -47.6258  -49.9303 C.2       2 UNK         0.5016 
     61 O          30.9936  -47.8087  -49.5044 O.2       2 UNK        -0.5319 
     62 CA         32.5925  -46.1837  -50.2342 C.3       2 UNK         0.0286 
     63 CB         33.0199  -45.4705  -48.9412 C.3       2 UNK        -0.1963 
     64 N          33.6815  -46.0922  -51.2135 N.am      2 UNK        -0.4790 
     65 C          33.5976  -46.5034  -52.4882 C.2       1 UNK         0.5024 
     66 O          32.5665  -46.9545  -52.9789 O.2       1 UNK        -0.4888 
     67 H67        37.6495  -47.6791  -49.9946 H         1 UNK         0.0892 
     68 H68        38.3457  -48.5345  -51.3731 H         1 UNK         0.0892 
     69 H69        38.3598  -46.7700  -51.3309 H         1 UNK         0.0892 
     70 H70        36.8032  -45.8800  -52.6627 H         1 UNK         0.3107 
     71 H71        34.8515  -47.3224  -54.0011 H         1 UNK         0.0773 
     72 H72        34.7818  -44.2783  -53.6373 H         1 UNK         0.0680 
     73 H73        35.9430  -45.0788  -54.6525 H         1 UNK         0.0680 
     74 H74        32.6860  -43.1112  -55.5730 H         1 UNK         0.0650 
     75 H75        32.5172  -43.9470  -54.0480 H         1 UNK         0.0650 
     76 H76        30.6715  -45.4337  -53.6153 H         1 UNK         0.1397 
     77 H77        27.6908  -46.0323  -56.6202 H         1 UNK         0.1363 
     78 H78        31.2649  -43.8458  -57.5516 H         1 UNK         0.1355 
     79 H79        29.2610  -45.4482  -59.3020 H         1 UNK         0.0707 
     80 H80        29.3790  -43.7226  -59.0675 H         1 UNK         0.0707 
     81 H81        27.6067  -42.2906  -58.0086 H         1 UNK         0.1034 
     82 H82        25.9633  -42.4232  -58.5714 H         1 UNK         0.1034 
     83 H83        27.0906  -43.4680  -55.9397 H         1 UNK         0.0482 
     84 H84        23.8820  -42.1981  -55.7044 H         1 UNK         0.3460 
     85 H85        24.3593  -40.6094  -55.1563 H         1 UNK         0.3460 
     86 H86        24.7869  -44.5120  -57.2694 H         1 UNK         0.2989 
     87 H87        23.5930  -46.2048  -54.3245 H         1 UNK         0.0559 
     88 H88        22.1233  -44.3147  -54.9545 H         1 UNK         0.0848 
     89 H89        21.5208  -45.8277  -55.6084 H         1 UNK         0.0848 
     90 H90        22.3372  -44.6746  -56.6599 H         1 UNK         0.0848 
     91 H91        24.0438  -47.8227  -55.7017 H         1 UNK         0.3144 
     92 H92        24.4464  -49.1067  -57.3437 H         1 UNK         0.0727 
     93 H93        22.9847  -49.8455  -59.2052 H         1 UNK         0.0790 
     94 H94        22.6510  -48.1698  -59.6464 H         1 UNK         0.0790 
     95 H95        22.0863  -48.8087  -58.1097 H         1 UNK         0.0790 
     96 H96        25.0561  -48.5381  -60.0864 H         1 UNK         0.3215 
     97 H97        27.5868  -49.5578  -60.2942 H         1 UNK         0.0863 
     98 H98        28.0627  -47.7037  -61.9268 H         1 UNK         0.0808 
     99 H99        27.3726  -46.5297  -60.8181 H         1 UNK         0.0808 
    100 H100       26.3564  -47.7577  -61.5546 H         1 UNK         0.0808 
    101 H101       28.9465  -47.9375  -58.4396 H         1 UNK         0.3118 
    102 H102       32.1009  -49.1229  -59.3276 H         1 UNK         0.0546 
    103 H103       31.4827  -46.1262  -59.4771 H         1 UNK         0.0828 
    104 H104       32.2744  -47.0643  -60.7339 H         1 UNK         0.0828 
    105 H105       33.0548  -46.8582  -59.1754 H         1 UNK         0.0828 
    106 H106       31.2364  -47.2509  -57.3151 H         1 UNK         0.3005 
    107 H107       31.2180  -47.8887  -55.2319 H         1 UNK         0.1257 
    108 H108       28.7161  -48.5711  -55.7237 H         1 UNK         0.0775 
    109 H109       29.0596  -50.0289  -54.8427 H         1 UNK         0.0775 
    110 H110       27.2832  -46.8685  -54.4541 H         1 UNK         0.0840 
    111 H111       28.0109  -45.9429  -53.1665 H         1 UNK         0.0840 
    112 H112       31.2391  -50.3230  -53.8578 H         1 UNK         0.2987 
    113 H113       33.2104  -51.8247  -53.7949 H         1 UNK         0.0785 
    114 H114       35.3252  -51.4588  -55.0578 H         1 UNK         0.0798 
    115 H115       35.6568  -51.8234  -53.3718 H         1 UNK         0.0798 
    116 H116       35.7843  -50.1659  -53.9568 H         1 UNK         0.0798 
    117 H117       34.3868  -49.7872  -52.0100 H         1 UNK         0.3079 
    118 H118       31.7549  -50.1995  -49.5772 H         1 UNK         0.0794 
    119 H119       33.8330  -50.3818  -48.2379 H         1 UNK         0.0786 
    120 H120       34.7925  -50.6216  -49.6955 H         1 UNK         0.0786 
    121 H121       33.6068  -51.8272  -49.2098 H         1 UNK         0.0786 
    122 H122       33.9259  -48.3653  -50.5325 H         1 UNK         0.3032 
    123 H123       31.7295  -45.6583  -50.6498 H         1 UNK         0.1094 
    124 H124       33.8953  -45.9406  -48.4914 H         1 UNK         0.0794 
    125 H125       33.2560  -44.4221  -49.1244 H         1 UNK         0.0794 
    126 H126       32.2200  -45.4951  -48.1996 H         1 UNK         0.0794 
    127 H127       34.5681  -45.7412  -50.8811 H         1 UNK         0.3016 
@<TRIPOS>BOND
     1    1    2 1    
     2    1   67 1    
     3    1   68 1    
     4    1   69 1    
     5    2    3 2    
     6    2    4 am   BACKBONE|DICT|INTERRES
     7    4    5 1    
     8    4   70 1    
     9    5    6 1    
    10    5   65 1    
    11    5   71 1    
    12    6    7 1    
    13    6   72 1    
    14    6   73 1    
    15    7    8 1    
    16    8    9 1    
    17    8   74 1    
    18    8   75 1    
    19    9   10 ar   
    20    9   14 ar   
    21   10   11 ar   
    22   10   76 1    
    23   11   12 ar   
    24   11   48 1    
    25   12   13 ar   
    26   12   77 1    
    27   13   14 ar   
    28   13   15 1    
    29   14   78 1    
    30   15   16 1    
    31   15   79 1    
    32   15   80 1    
    33   16   17 1    
    34   17   18 1    
    35   17   81 1    
    36   17   82 1    
    37   18   19 1    
    38   18   22 1    
    39   18   83 1    
    40   19   20 am   BACKBONE|DICT|INTERRES
    41   19   21 2    
    42   20   84 1    
    43   20   85 1    
    44   22   23 am   BACKBONE|DICT|INTERRES
    45   22   86 1    
    46   23   24 2    
    47   23   25 1    
    48   25   26 1    
    49   25   27 1    
    50   25   87 1    
    51   26   88 1    
    52   26   89 1    
    53   26   90 1    
    54   27   28 am   BACKBONE|DICT|INTERRES
    55   27   91 1    
    56   28   29 2    
    57   28   30 1    
    58   30   31 1    
    59   30   32 1    
    60   30   92 1    
    61   31   93 1    
    62   31   94 1    
    63   31   95 1    
    64   32   33 am   BACKBONE|DICT|INTERRES
    65   32   96 1    
    66   33   34 2    
    67   33   35 1    
    68   35   36 1    
    69   35   37 1    
    70   35   97 1    
    71   36   98 1    
    72   36   99 1    
    73   36  100 1    
    74   37   38 am   BACKBONE|DICT|INTERRES
    75   37  101 1    
    76   38   39 2    
    77   38   40 1    
    78   40   41 1    
    79   40   42 1    
    80   40  102 1    
    81   41  103 1    
    82   41  104 1    
    83   41  105 1    
    84   42   43 am   BACKBONE|DICT|INTERRES
    85   42  106 1    
    86   43   44 2    
    87   43   45 1    
    88   45   46 1    
    89   45   49 1    
    90   45  107 1    
    91   46   47 1    
    92   46  108 1    
    93   46  109 1    
    94   47   48 1    
    95   48  110 1    
    96   48  111 1    
    97   49   50 am   BACKBONE|DICT|INTERRES
    98   49  112 1    
    99   50   51 2    
   100   50   52 1    
   101   52   53 1    
   102   52   54 1    
   103   52  113 1    
   104   53  114 1    
   105   53  115 1    
   106   53  116 1    
   107   54   55 am   BACKBONE|DICT|INTERRES
   108   54  117 1    
   109   55   56 2    
   110   55   57 1    
   111   57   58 1    
   112   57   59 1    
   113   57  118 1    
   114   58  119 1    
   115   58  120 1    
   116   58  121 1    
   117   59   60 am   BACKBONE|DICT|INTERRES
   118   59  122 1    
   119   60   61 2    
   120   60   62 1    
   121   62   63 1    
   122   62   64 1    
   123   62  123 1    
   124   63  124 1    
   125   63  125 1    
   126   63  126 1    
   127   64   65 am   BACKBONE|DICT|INTERRES
   128   64  127 1    
   129   65   66 2    
@<TRIPOS>SUBSTRUCTURE
     1 UNK         1 GROUP             0       ****    0 ROOT    
