@<TRIPOS>MOLECULE
3R134
127   129    1
SMALL
USER_CHARGES


@<TRIPOS>ATOM
      1 CA         37.1349  -48.6560  -55.7203 C.3       0 UNK        -0.1968 
      2 C          35.8969  -47.8571  -55.3440 C.2       0 UNK         0.4852 
      3 O          34.7822  -48.2824  -55.6447 O.2       0 UNK        -0.5359 
      4 N          36.0770  -46.7095  -54.6759 N.am      1 UNK        -0.4300 
      5 CA         35.0029  -45.8077  -54.2402 C.3       1 UNK         0.0863 
      6 C6         35.5938  -44.4659  -53.7320 C.3       11 UNK        -0.0953 
      7 S7         34.4195  -43.2495  -53.0437 S.3       11 UNK        -0.2369 
      8 C8         33.3536  -42.8340  -54.4727 C.3       11 UNK         0.0226 
      9 C9         31.8609  -43.1018  -54.2551 C.ar      11 UNK        -0.0699 
     10 C10        31.2879  -43.1179  -52.9762 C.ar      11 UNK        -0.0804 
     11 C11        29.9188  -43.3354  -52.8030 C.ar      11 UNK        -0.0871 
     12 C12        29.1026  -43.4935  -53.9247 C.ar      11 UNK        -0.1008 
     13 C13        29.6559  -43.4998  -55.2070 C.ar      11 UNK        -0.0735 
     14 C14        31.0330  -43.3052  -55.3656 C.ar      11 UNK        -0.0945 
     15 C15        28.7630  -43.7367  -56.4140 C.3       11 UNK         0.0169 
     16 S16        28.4994  -42.1979  -57.3452 S.3       11 UNK        -0.2669 
     17 C17        26.9737  -42.5616  -58.2882 C.3       11 UNK        -0.0850 
     18 CA         27.1601  -43.4326  -59.5603 C.3       10 UNK         0.0855 
     19 C          28.1612  -42.8115  -60.5816 C.2       10 UNK         0.5543 
     20 N          29.2692  -43.4649  -60.9099 N.am      10 UNK        -0.7343 
     21 O          27.9167  -41.7213  -61.0927 O.2       10 UNK        -0.5027 
     22 N          27.3795  -44.8447  -59.2085 N.am      10 UNK        -0.4495 
     23 C          27.2312  -45.8832  -60.0405 C.2       10 UNK         0.4903 
     24 O          26.9170  -45.7803  -61.2263 O.2       10 UNK        -0.4860 
     25 CA         27.4613  -47.2799  -59.4412 C.3       9 UNK         0.0227 
     26 CB         28.9471  -47.6649  -59.5214 C.3       9 UNK        -0.1964 
     27 N          27.0003  -47.4100  -58.0558 N.am      9 UNK        -0.4231 
     28 C          25.7193  -47.3797  -57.6597 C.2       9 UNK         0.5014 
     29 O          24.7702  -47.1456  -58.4109 O.2       9 UNK        -0.5270 
     30 CA         25.4756  -47.7149  -56.1746 C.3       8 UNK         0.0284 
     31 CB         23.9812  -47.7934  -55.7977 C.3       8 UNK        -0.1977 
     32 N          26.1874  -48.9373  -55.7797 N.am      8 UNK        -0.4342 
     33 C          26.0513  -50.1692  -56.2962 C.2       8 UNK         0.5039 
     34 O          25.1836  -50.4870  -57.1106 O.2       8 UNK        -0.5547 
     35 CA         27.0824  -51.2289  -55.8683 C.3       7 UNK         0.0281 
     36 CB         28.1183  -51.4303  -56.9872 C.3       7 UNK        -0.1963 
     37 N          27.7847  -50.8946  -54.6272 N.am      7 UNK        -0.4444 
     38 C          27.2566  -51.0030  -53.4012 C.2       7 UNK         0.5104 
     39 O          26.1293  -51.4444  -53.1760 O.2       7 UNK        -0.5100 
     40 CA         28.1244  -50.5103  -52.2294 C.3       6 UNK         0.0396 
     41 CB         29.1426  -51.5851  -51.8182 C.3       6 UNK        -0.1801 
     42 N          28.8223  -49.2509  -52.5099 N.am      6 UNK        -0.4747 
     43 C          28.2148  -48.0838  -52.7764 C.2       6 UNK         0.5012 
     44 O          26.9928  -47.9445  -52.8296 O.2       6 UNK        -0.5003 
     45 CA         29.1234  -46.8772  -53.0732 C.3       5 UNK         0.0782 
     46 C46        29.7022  -46.2584  -51.7720 C.3       11 UNK        -0.0868 
     47 S47        28.5422  -45.0419  -51.0519 S.3       11 UNK        -0.2515 
     48 C48        29.3374  -43.4315  -51.3972 C.3       11 UNK         0.0199 
     49 N          30.1564  -47.2070  -54.0565 N.am      5 UNK        -0.4607 
     50 C          29.9133  -47.5008  -55.3418 C.2       4 UNK         0.5031 
     51 O          28.7985  -47.4473  -55.8619 O.2       4 UNK        -0.5119 
     52 CA         31.1032  -47.9756  -56.1904 C.3       4 UNK         0.0263 
     53 CB         31.8735  -46.7736  -56.7586 C.3       4 UNK        -0.1967 
     54 N          32.0137  -48.8559  -55.4527 N.am      4 UNK        -0.4237 
     55 C          31.6658  -50.0333  -54.9110 C.2       3 UNK         0.4908 
     56 O          30.5518  -50.5403  -55.0309 O.2       3 UNK        -0.5102 
     57 CA         32.7150  -50.7417  -54.0418 C.3       3 UNK         0.0241 
     58 CB         33.7143  -51.5280  -54.9052 C.3       3 UNK        -0.1971 
     59 N          33.4256  -49.8051  -53.1699 N.am      3 UNK        -0.4139 
     60 C          32.8656  -49.1612  -52.1351 C.2       2 UNK         0.5016 
     61 O          31.6988  -49.3221  -51.7747 O.2       2 UNK        -0.5319 
     62 CA         33.7464  -48.1258  -51.4127 C.3       2 UNK         0.0286 
     63 CB         34.6619  -48.8102  -50.3855 C.3       2 UNK        -0.1963 
     64 N          34.5542  -47.3223  -52.3380 N.am      2 UNK        -0.4790 
     65 C          34.0305  -46.4855  -53.2471 C.2       1 UNK         0.5024 
     66 O          32.8211  -46.2945  -53.3617 O.2       1 UNK        -0.4888 
     67 H67        37.1928  -48.7658  -56.8028 H         1 UNK         0.0892 
     68 H68        38.0513  -48.1759  -55.3778 H         1 UNK         0.0892 
     69 H69        37.0867  -49.6513  -55.2795 H         1 UNK         0.0892 
     70 H70        37.0171  -46.4117  -54.4561 H         1 UNK         0.3107 
     71 H71        34.4154  -45.5855  -55.1321 H         1 UNK         0.0773 
     72 H72        36.1422  -43.9779  -54.5395 H         1 UNK         0.0680 
     73 H73        36.3308  -44.6634  -52.9516 H         1 UNK         0.0680 
     74 H74        33.4800  -41.7732  -54.6918 H         1 UNK         0.0650 
     75 H75        33.7003  -43.3684  -55.3575 H         1 UNK         0.0650 
     76 H76        31.9057  -42.9722  -52.1022 H         1 UNK         0.1397 
     77 H77        28.0408  -43.6507  -53.7927 H         1 UNK         0.1363 
     78 H78        31.4563  -43.2990  -56.3607 H         1 UNK         0.1355 
     79 H79        27.8031  -44.1488  -56.0986 H         1 UNK         0.0707 
     80 H80        29.2255  -44.4816  -57.0626 H         1 UNK         0.0707 
     81 H81        26.5380  -41.6023  -58.5740 H         1 UNK         0.1034 
     82 H82        26.2376  -43.0155  -57.6228 H         1 UNK         0.1034 
     83 H83        26.1986  -43.4138  -60.0774 H         1 UNK         0.0482 
     84 H84        29.9059  -43.0559  -61.5753 H         1 UNK         0.3460 
     85 H85        29.4703  -44.3624  -60.5016 H         1 UNK         0.3460 
     86 H86        27.6438  -45.0324  -58.2549 H         1 UNK         0.2989 
     87 H87        26.8949  -47.9933  -60.0437 H         1 UNK         0.0559 
     88 H88        29.5692  -47.0011  -58.9214 H         1 UNK         0.0848 
     89 H89        29.3095  -47.6117  -60.5490 H         1 UNK         0.0848 
     90 H90        29.1121  -48.6851  -59.1744 H         1 UNK         0.0848 
     91 H91        27.7084  -47.5652  -57.3397 H         1 UNK         0.3144 
     92 H92        25.9195  -46.9023  -55.5972 H         1 UNK         0.0727 
     93 H93        23.4572  -48.5622  -56.3663 H         1 UNK         0.0790 
     94 H94        23.4799  -46.8453  -55.9956 H         1 UNK         0.0790 
     95 H95        23.8530  -48.0137  -54.7379 H         1 UNK         0.0790 
     96 H96        26.9480  -48.7931  -55.1277 H         1 UNK         0.3215 
     97 H97        26.5473  -52.1697  -55.7218 H         1 UNK         0.0863 
     98 H98        28.6843  -50.5177  -57.1792 H         1 UNK         0.0808 
     99 H99        27.6355  -51.7182  -57.9221 H         1 UNK         0.0808 
    100 H100       28.8291  -52.2169  -56.7333 H         1 UNK         0.0808 
    101 H101       28.7549  -50.5930  -54.7169 H         1 UNK         0.3118 
    102 H102       27.4614  -50.3324  -51.3803 H         1 UNK         0.0546 
    103 H103       29.7142  -51.2762  -50.9429 H         1 UNK         0.0828 
    104 H104       29.8496  -51.7990  -52.6199 H         1 UNK         0.0828 
    105 H105       28.6423  -52.5209  -51.5657 H         1 UNK         0.0828 
    106 H106       29.8380  -49.2717  -52.4584 H         1 UNK         0.3005 
    107 H107       28.4890  -46.1330  -53.5577 H         1 UNK         0.1257 
    108 H108       30.6531  -45.7637  -51.9678 H         1 UNK         0.0775 
    109 H109       29.9331  -47.0215  -51.0259 H         1 UNK         0.0775 
    110 H110       28.6038  -42.6364  -51.2577 H         1 UNK         0.0840 
    111 H111       30.1125  -43.2654  -50.6474 H         1 UNK         0.0840 
    112 H112       31.1189  -47.1845  -53.7333 H         1 UNK         0.2987 
    113 H113       30.7032  -48.5524  -57.0264 H         1 UNK         0.0785 
    114 H114       32.7089  -47.0937  -57.3816 H         1 UNK         0.0798 
    115 H115       31.2269  -46.1492  -57.3751 H         1 UNK         0.0798 
    116 H116       32.2684  -46.1385  -55.9668 H         1 UNK         0.0798 
    117 H117       32.9812  -48.5485  -55.3656 H         1 UNK         0.3079 
    118 H118       32.1888  -51.4557  -53.4050 H         1 UNK         0.0794 
    119 H119       34.4245  -52.0782  -54.2879 H         1 UNK         0.0786 
    120 H120       34.2818  -50.8778  -55.5712 H         1 UNK         0.0786 
    121 H121       33.1959  -52.2573  -55.5292 H         1 UNK         0.0786 
    122 H122       34.3716  -49.5676  -53.4297 H         1 UNK         0.3032 
    123 H123       33.0767  -47.4485  -50.8771 H         1 UNK         0.1094 
    124 H124       34.0786  -49.4022  -49.6786 H         1 UNK         0.0794 
    125 H125       35.3770  -49.4823  -50.8613 H         1 UNK         0.0794 
    126 H126       35.2233  -48.0778  -49.8051 H         1 UNK         0.0794 
    127 H127       35.5568  -47.4381  -52.3029 H         1 UNK         0.3016 
@<TRIPOS>BOND
     1    1    2 1    
     2    1   67 1    
     3    1   68 1    
     4    1   69 1    
     5    2    3 2    
     6    2    4 am   BACKBONE|DICT|INTERRES
     7    4    5 1    
     8    4   70 1    
     9    5    6 1    
    10    5   65 1    
    11    5   71 1    
    12    6    7 1    
    13    6   72 1    
    14    6   73 1    
    15    7    8 1    
    16    8    9 1    
    17    8   74 1    
    18    8   75 1    
    19    9   10 ar   
    20    9   14 ar   
    21   10   11 ar   
    22   10   76 1    
    23   11   12 ar   
    24   11   48 1    
    25   12   13 ar   
    26   12   77 1    
    27   13   14 ar   
    28   13   15 1    
    29   14   78 1    
    30   15   16 1    
    31   15   79 1    
    32   15   80 1    
    33   16   17 1    
    34   17   18 1    
    35   17   81 1    
    36   17   82 1    
    37   18   19 1    
    38   18   22 1    
    39   18   83 1    
    40   19   20 am   BACKBONE|DICT|INTERRES
    41   19   21 2    
    42   20   84 1    
    43   20   85 1    
    44   22   23 am   BACKBONE|DICT|INTERRES
    45   22   86 1    
    46   23   24 2    
    47   23   25 1    
    48   25   26 1    
    49   25   27 1    
    50   25   87 1    
    51   26   88 1    
    52   26   89 1    
    53   26   90 1    
    54   27   28 am   BACKBONE|DICT|INTERRES
    55   27   91 1    
    56   28   29 2    
    57   28   30 1    
    58   30   31 1    
    59   30   32 1    
    60   30   92 1    
    61   31   93 1    
    62   31   94 1    
    63   31   95 1    
    64   32   33 am   BACKBONE|DICT|INTERRES
    65   32   96 1    
    66   33   34 2    
    67   33   35 1    
    68   35   36 1    
    69   35   37 1    
    70   35   97 1    
    71   36   98 1    
    72   36   99 1    
    73   36  100 1    
    74   37   38 am   BACKBONE|DICT|INTERRES
    75   37  101 1    
    76   38   39 2    
    77   38   40 1    
    78   40   41 1    
    79   40   42 1    
    80   40  102 1    
    81   41  103 1    
    82   41  104 1    
    83   41  105 1    
    84   42   43 am   BACKBONE|DICT|INTERRES
    85   42  106 1    
    86   43   44 2    
    87   43   45 1    
    88   45   46 1    
    89   45   49 1    
    90   45  107 1    
    91   46   47 1    
    92   46  108 1    
    93   46  109 1    
    94   47   48 1    
    95   48  110 1    
    96   48  111 1    
    97   49   50 am   BACKBONE|DICT|INTERRES
    98   49  112 1    
    99   50   51 2    
   100   50   52 1    
   101   52   53 1    
   102   52   54 1    
   103   52  113 1    
   104   53  114 1    
   105   53  115 1    
   106   53  116 1    
   107   54   55 am   BACKBONE|DICT|INTERRES
   108   54  117 1    
   109   55   56 2    
   110   55   57 1    
   111   57   58 1    
   112   57   59 1    
   113   57  118 1    
   114   58  119 1    
   115   58  120 1    
   116   58  121 1    
   117   59   60 am   BACKBONE|DICT|INTERRES
   118   59  122 1    
   119   60   61 2    
   120   60   62 1    
   121   62   63 1    
   122   62   64 1    
   123   62  123 1    
   124   63  124 1    
   125   63  125 1    
   126   63  126 1    
   127   64   65 am   BACKBONE|DICT|INTERRES
   128   64  127 1    
   129   65   66 2    
@<TRIPOS>SUBSTRUCTURE
     1 UNK         1 GROUP             0       ****    0 ROOT    
