@<TRIPOS>MOLECULE
3R134
127   129    1
SMALL
USER_CHARGES


@<TRIPOS>ATOM
      1 CA         32.7868  -48.8832  -60.1414 C.3       0 UNK        -0.1968 
      2 C          33.3902  -48.4074  -58.8280 C.2       0 UNK         0.4852 
      3 O          34.5805  -48.0931  -58.7856 O.2       0 UNK        -0.5359 
      4 N          32.5740  -48.3512  -57.7673 N.am      1 UNK        -0.4300 
      5 CA         32.9502  -47.9819  -56.3973 C.3       1 UNK         0.0863 
      6 C6         33.5096  -46.5304  -56.2843 C.3       11 UNK        -0.0953 
      7 S7         33.3171  -45.8386  -54.6057 S.3       11 UNK        -0.2369 
      8 C8         33.3476  -44.0432  -54.9081 C.3       11 UNK         0.0226 
      9 C9         32.0489  -43.3938  -54.4565 C.ar      11 UNK        -0.0699 
     10 C10        31.7721  -43.2691  -53.0922 C.ar      11 UNK        -0.0804 
     11 C11        30.5655  -42.7124  -52.6604 C.ar      11 UNK        -0.0871 
     12 C12        29.6460  -42.2481  -53.6050 C.ar      11 UNK        -0.1008 
     13 C13        29.9126  -42.3597  -54.9728 C.ar      11 UNK        -0.0735 
     14 C14        31.1202  -42.9282  -55.3920 C.ar      11 UNK        -0.0945 
     15 C15        28.8928  -41.8709  -55.9930 C.3       11 UNK         0.0169 
     16 S16        27.3462  -42.8255  -55.9002 S.3       11 UNK        -0.2669 
     17 C17        26.4378  -42.1677  -57.3384 C.3       11 UNK        -0.0850 
     18 CA         25.2256  -43.0573  -57.7174 C.3       10 UNK         0.0855 
     19 C          24.3898  -42.3976  -58.8473 C.2       10 UNK         0.5543 
     20 N          23.4071  -41.5810  -58.4935 N.am      10 UNK        -0.7343 
     21 O          24.6508  -42.5831  -60.0347 O.2       10 UNK        -0.5027 
     22 N          25.6517  -44.4206  -58.0588 N.am      10 UNK        -0.4495 
     23 C          24.8526  -45.4852  -58.1746 C.2       10 UNK         0.4903 
     24 O          23.6388  -45.4496  -57.9692 O.2       10 UNK        -0.4860 
     25 CA         25.5006  -46.8330  -58.5522 C.3       9 UNK         0.0227 
     26 CB         25.3677  -47.1051  -60.0634 C.3       9 UNK        -0.1964 
     27 N          26.8857  -47.0194  -58.0881 N.am      9 UNK        -0.4231 
     28 C          28.0042  -46.3852  -58.4805 C.2       9 UNK         0.5014 
     29 O          28.0174  -45.5002  -59.3364 O.2       9 UNK        -0.5270 
     30 CA         29.3276  -46.7516  -57.7831 C.3       8 UNK         0.0284 
     31 CB         29.9162  -45.5209  -57.0819 C.3       8 UNK        -0.1977 
     32 N          29.1553  -47.8189  -56.7958 N.am      8 UNK        -0.4342 
     33 C          29.3553  -49.1203  -57.0456 C.2       8 UNK         0.5039 
     34 O          29.8744  -49.5273  -58.0848 O.2       8 UNK        -0.5547 
     35 CA         28.9325  -50.1447  -55.9756 C.3       7 UNK         0.0281 
     36 CB         30.1407  -50.9532  -55.4730 C.3       7 UNK        -0.1963 
     37 N          28.2350  -49.5444  -54.8356 N.am      7 UNK        -0.4444 
     38 C          26.9695  -49.1012  -54.8644 C.2       7 UNK         0.5104 
     39 O          26.2503  -49.1632  -55.8616 O.2       7 UNK        -0.5100 
     40 CA         26.4400  -48.4141  -53.5919 C.3       6 UNK         0.0396 
     41 CB         25.7484  -49.4387  -52.6796 C.3       6 UNK        -0.1801 
     42 N          27.4761  -47.7067  -52.8312 N.am      6 UNK        -0.4747 
     43 C          28.2143  -46.6868  -53.2990 C.2       6 UNK         0.5012 
     44 O          28.0832  -46.2246  -54.4305 O.2       6 UNK        -0.5003 
     45 CA         29.3274  -46.1520  -52.3732 C.3       5 UNK         0.0782 
     46 C46        28.7689  -45.0509  -51.4369 C.3       11 UNK        -0.0868 
     47 S47        30.0762  -44.2851  -50.4171 S.3       11 UNK        -0.2515 
     48 C48        30.2444  -42.6342  -51.1745 C.3       11 UNK         0.0199 
     49 N          29.9765  -47.2380  -51.6230 N.am      5 UNK        -0.4607 
     50 C          30.6394  -48.2597  -52.1781 C.2       4 UNK         0.5031 
     51 O          30.8354  -48.3748  -53.3903 O.2       4 UNK        -0.5119 
     52 CA         31.0826  -49.3803  -51.2319 C.3       4 UNK         0.0263 
     53 CB         29.8529  -50.1912  -50.7663 C.3       4 UNK        -0.1967 
     54 N          32.0199  -50.2365  -51.9538 N.am      4 UNK        -0.4237 
     55 C          32.7310  -51.2528  -51.4517 C.2       3 UNK         0.4908 
     56 O          32.7079  -51.5947  -50.2688 O.2       3 UNK        -0.5102 
     57 CA         33.6249  -52.0208  -52.4388 C.3       3 UNK         0.0241 
     58 CB         32.8120  -53.0859  -53.1927 C.3       3 UNK        -0.1971 
     59 N          34.2891  -51.1425  -53.4032 N.am      3 UNK        -0.4139 
     60 C          35.3021  -50.3176  -53.1139 C.2       2 UNK         0.5016 
     61 O          35.8014  -50.2140  -51.9929 O.2       2 UNK        -0.5319 
     62 CA         35.8594  -49.4611  -54.2632 C.3       2 UNK         0.0286 
     63 CB         36.7098  -50.3048  -55.2333 C.3       2 UNK        -0.1963 
     64 N          34.8470  -48.6702  -54.9768 N.am      2 UNK        -0.4790 
     65 C          33.8440  -49.0775  -55.7677 C.2       1 UNK         0.5024 
     66 O          33.5904  -50.2647  -55.9873 O.2       1 UNK        -0.4888 
     67 H67        32.9245  -48.1271  -60.9138 H         1 UNK         0.0892 
     68 H68        33.2771  -49.7994  -60.4687 H         1 UNK         0.0892 
     69 H69        31.7194  -49.0837  -60.0517 H         1 UNK         0.0892 
     70 H70        31.6250  -48.7006  -57.8756 H         1 UNK         0.3107 
     71 H71        32.0151  -48.0164  -55.8368 H         1 UNK         0.0773 
     72 H72        34.5573  -46.4751  -56.5849 H         1 UNK         0.0680 
     73 H73        32.9761  -45.8806  -56.9784 H         1 UNK         0.0680 
     74 H74        33.5410  -43.8334  -55.9608 H         1 UNK         0.0650 
     75 H75        34.1804  -43.6082  -54.3544 H         1 UNK         0.0650 
     76 H76        32.4832  -43.6372  -52.3652 H         1 UNK         0.1397 
     77 H77        28.7079  -41.8183  -53.2811 H         1 UNK         0.1363 
     78 H78        31.3333  -43.0201  -56.4476 H         1 UNK         0.1355 
     79 H79        28.6792  -40.8166  -55.8162 H         1 UNK         0.0707 
     80 H80        29.2978  -41.9441  -57.0028 H         1 UNK         0.0707 
     81 H81        26.1111  -41.1546  -57.0953 H         1 UNK         0.1034 
     82 H82        27.1203  -42.0767  -58.1858 H         1 UNK         0.1034 
     83 H83        24.5839  -43.1377  -56.8373 H         1 UNK         0.0482 
     84 H84        23.1908  -41.4146  -57.5227 H         1 UNK         0.3460 
     85 H85        22.8618  -41.1300  -59.2117 H         1 UNK         0.3460 
     86 H86        26.6232  -44.5366  -58.3239 H         1 UNK         0.2989 
     87 H87        24.9247  -47.6014  -58.0339 H         1 UNK         0.0559 
     88 H88        25.8891  -46.3571  -60.6612 H         1 UNK         0.0848 
     89 H89        24.3210  -47.0871  -60.3696 H         1 UNK         0.0848 
     90 H90        25.7657  -48.0848  -60.3277 H         1 UNK         0.0848 
     91 H91        26.9794  -47.7079  -57.3507 H         1 UNK         0.3144 
     92 H92        30.0300  -47.0646  -58.5579 H         1 UNK         0.0727 
     93 H93        29.1768  -45.0231  -56.4563 H         1 UNK         0.0790 
     94 H94        30.2695  -44.7904  -57.8100 H         1 UNK         0.0790 
     95 H95        30.7537  -45.7838  -56.4394 H         1 UNK         0.0790 
     96 H96        28.7730  -47.5330  -55.8994 H         1 UNK         0.3215 
     97 H97        28.2461  -50.8414  -56.4619 H         1 UNK         0.0863 
     98 H98        29.8459  -51.6842  -54.7201 H         1 UNK         0.0808 
     99 H99        30.9090  -50.3141  -55.0417 H         1 UNK         0.0808 
    100 H100       30.6086  -51.5032  -56.2908 H         1 UNK         0.0808 
    101 H101       28.7870  -49.3827  -54.0042 H         1 UNK         0.3118 
    102 H102       25.6976  -47.6762  -53.9030 H         1 UNK         0.0546 
    103 H103       24.9574  -49.9658  -53.2150 H         1 UNK         0.0828 
    104 H104       25.2862  -48.9563  -51.8182 H         1 UNK         0.0828 
    105 H105       26.4476  -50.1899  -52.3101 H         1 UNK         0.0828 
    106 H106       27.6508  -48.0298  -51.8908 H         1 UNK         0.3005 
    107 H107       30.0836  -45.7036  -53.0230 H         1 UNK         0.1257 
    108 H108       28.0160  -45.4651  -50.7637 H         1 UNK         0.0775 
    109 H109       28.2595  -44.2757  -52.0127 H         1 UNK         0.0775 
    110 H110       29.3265  -42.0699  -51.0026 H         1 UNK         0.0840 
    111 H111       31.0389  -42.0884  -50.6639 H         1 UNK         0.0840 
    112 H112       29.8774  -47.2010  -50.6187 H         1 UNK         0.2987 
    113 H113       31.5932  -48.9387  -50.3739 H         1 UNK         0.0785 
    114 H114       29.1262  -49.5574  -50.2571 H         1 UNK         0.0798 
    115 H115       30.1285  -50.9752  -50.0616 H         1 UNK         0.0798 
    116 H116       29.3428  -50.6652  -51.6060 H         1 UNK         0.0798 
    117 H117       32.1142  -49.9915  -52.9319 H         1 UNK         0.3079 
    118 H118       34.3957  -52.5320  -51.8577 H         1 UNK         0.0794 
    119 H119       32.0454  -52.6383  -53.8256 H         1 UNK         0.0786 
    120 H120       32.3096  -53.7592  -52.4967 H         1 UNK         0.0786 
    121 H121       33.4540  -53.6974  -53.8272 H         1 UNK         0.0786 
    122 H122       33.9398  -51.1315  -54.3585 H         1 UNK         0.3032 
    123 H123       36.5279  -48.7311  -53.8033 H         1 UNK         0.1094 
    124 H124       36.1228  -51.0731  -55.7366 H         1 UNK         0.0794 
    125 H125       37.1698  -49.6811  -55.9998 H         1 UNK         0.0794 
    126 H126       37.5159  -50.8120  -54.7015 H         1 UNK         0.0794 
    127 H127       34.9042  -47.6714  -54.8195 H         1 UNK         0.3016 
@<TRIPOS>BOND
     1    1    2 1    
     2    1   67 1    
     3    1   68 1    
     4    1   69 1    
     5    2    3 2    
     6    2    4 am   BACKBONE|DICT|INTERRES
     7    4    5 1    
     8    4   70 1    
     9    5    6 1    
    10    5   65 1    
    11    5   71 1    
    12    6    7 1    
    13    6   72 1    
    14    6   73 1    
    15    7    8 1    
    16    8    9 1    
    17    8   74 1    
    18    8   75 1    
    19    9   10 ar   
    20    9   14 ar   
    21   10   11 ar   
    22   10   76 1    
    23   11   12 ar   
    24   11   48 1    
    25   12   13 ar   
    26   12   77 1    
    27   13   14 ar   
    28   13   15 1    
    29   14   78 1    
    30   15   16 1    
    31   15   79 1    
    32   15   80 1    
    33   16   17 1    
    34   17   18 1    
    35   17   81 1    
    36   17   82 1    
    37   18   19 1    
    38   18   22 1    
    39   18   83 1    
    40   19   20 am   BACKBONE|DICT|INTERRES
    41   19   21 2    
    42   20   84 1    
    43   20   85 1    
    44   22   23 am   BACKBONE|DICT|INTERRES
    45   22   86 1    
    46   23   24 2    
    47   23   25 1    
    48   25   26 1    
    49   25   27 1    
    50   25   87 1    
    51   26   88 1    
    52   26   89 1    
    53   26   90 1    
    54   27   28 am   BACKBONE|DICT|INTERRES
    55   27   91 1    
    56   28   29 2    
    57   28   30 1    
    58   30   31 1    
    59   30   32 1    
    60   30   92 1    
    61   31   93 1    
    62   31   94 1    
    63   31   95 1    
    64   32   33 am   BACKBONE|DICT|INTERRES
    65   32   96 1    
    66   33   34 2    
    67   33   35 1    
    68   35   36 1    
    69   35   37 1    
    70   35   97 1    
    71   36   98 1    
    72   36   99 1    
    73   36  100 1    
    74   37   38 am   BACKBONE|DICT|INTERRES
    75   37  101 1    
    76   38   39 2    
    77   38   40 1    
    78   40   41 1    
    79   40   42 1    
    80   40  102 1    
    81   41  103 1    
    82   41  104 1    
    83   41  105 1    
    84   42   43 am   BACKBONE|DICT|INTERRES
    85   42  106 1    
    86   43   44 2    
    87   43   45 1    
    88   45   46 1    
    89   45   49 1    
    90   45  107 1    
    91   46   47 1    
    92   46  108 1    
    93   46  109 1    
    94   47   48 1    
    95   48  110 1    
    96   48  111 1    
    97   49   50 am   BACKBONE|DICT|INTERRES
    98   49  112 1    
    99   50   51 2    
   100   50   52 1    
   101   52   53 1    
   102   52   54 1    
   103   52  113 1    
   104   53  114 1    
   105   53  115 1    
   106   53  116 1    
   107   54   55 am   BACKBONE|DICT|INTERRES
   108   54  117 1    
   109   55   56 2    
   110   55   57 1    
   111   57   58 1    
   112   57   59 1    
   113   57  118 1    
   114   58  119 1    
   115   58  120 1    
   116   58  121 1    
   117   59   60 am   BACKBONE|DICT|INTERRES
   118   59  122 1    
   119   60   61 2    
   120   60   62 1    
   121   62   63 1    
   122   62   64 1    
   123   62  123 1    
   124   63  124 1    
   125   63  125 1    
   126   63  126 1    
   127   64   65 am   BACKBONE|DICT|INTERRES
   128   64  127 1    
   129   65   66 2    
@<TRIPOS>SUBSTRUCTURE
     1 UNK         1 GROUP             0       ****    0 ROOT    
