@<TRIPOS>MOLECULE
3R134
127   129    1
SMALL
USER_CHARGES


@<TRIPOS>ATOM
      1 CA         36.2012  -45.9218  -50.4433 C.3       0 UNK        -0.1968 
      2 C          35.1461  -46.2977  -51.4721 C.2       0 UNK         0.4852 
      3 O          35.3592  -47.2237  -52.2562 O.2       0 UNK        -0.5359 
      4 N          34.0019  -45.5972  -51.4669 N.am      1 UNK        -0.4300 
      5 CA         32.8837  -45.7721  -52.4080 C.3       1 UNK         0.0863 
      6 C6         31.7547  -44.7227  -52.2075 C.3       11 UNK        -0.0953 
      7 S7         32.3025  -43.0360  -51.7598 S.3       11 UNK        -0.2369 
      8 C8         33.2818  -42.5073  -53.2032 C.3       11 UNK         0.0226 
      9 C9         32.4752  -42.4467  -54.4937 C.ar      11 UNK        -0.0699 
     10 C10        32.9364  -43.1158  -55.6314 C.ar      11 UNK        -0.0804 
     11 C11        32.2075  -43.0702  -56.8229 C.ar      11 UNK        -0.0871 
     12 C12        31.0246  -42.3332  -56.8802 C.ar      11 UNK        -0.1008 
     13 C13        30.5345  -41.6910  -55.7426 C.ar      11 UNK        -0.0735 
     14 C14        31.2749  -41.7284  -54.5574 C.ar      11 UNK        -0.0945 
     15 C15        29.1795  -41.0039  -55.7934 C.3       11 UNK         0.0169 
     16 S16        27.8712  -42.0047  -55.0073 S.3       11 UNK        -0.2669 
     17 C17        27.9213  -43.6003  -55.9058 C.3       11 UNK        -0.0850 
     18 CA         26.8169  -43.7385  -56.9943 C.3       10 UNK         0.0855 
     19 C          27.3520  -43.4830  -58.4356 C.2       10 UNK         0.5543 
     20 N          27.1694  -44.3893  -59.3902 N.am      10 UNK        -0.7343 
     21 O          27.9243  -42.4307  -58.7035 O.2       10 UNK        -0.5027 
     22 N          26.0989  -45.0146  -56.8554 N.am      10 UNK        -0.4495 
     23 C          24.7959  -45.1847  -57.1095 C.2       10 UNK         0.4903 
     24 O          24.0397  -44.2687  -57.4381 O.2       10 UNK        -0.4860 
     25 CA         24.2396  -46.6130  -56.9558 C.3       9 UNK         0.0227 
     26 CB         22.8916  -46.8121  -57.6817 C.3       9 UNK        -0.1964 
     27 N          25.1870  -47.6689  -57.3306 N.am      9 UNK        -0.4231 
     28 C          25.7460  -47.8875  -58.5318 C.2       9 UNK         0.5014 
     29 O          25.5941  -47.1322  -59.4936 O.2       9 UNK        -0.5270 
     30 CA         26.6262  -49.1487  -58.7015 C.3       8 UNK         0.0284 
     31 CB         27.8931  -48.8462  -59.5221 C.3       8 UNK        -0.1977 
     32 N          27.0184  -49.7674  -57.4315 N.am      8 UNK        -0.4342 
     33 C          26.2465  -50.5489  -56.6640 C.2       8 UNK         0.5039 
     34 O          25.1303  -50.9469  -56.9960 O.2       8 UNK        -0.5547 
     35 CA         26.7752  -50.8652  -55.2538 C.3       7 UNK         0.0281 
     36 CB         27.5768  -52.1769  -55.2404 C.3       7 UNK        -0.1963 
     37 N          27.5881  -49.7688  -54.7123 N.am      7 UNK        -0.4444 
     38 C          27.0943  -48.5797  -54.3333 C.2       7 UNK         0.5104 
     39 O          25.8942  -48.3070  -54.3420 O.2       7 UNK        -0.5100 
     40 CA         28.1081  -47.4972  -53.9218 C.3       6 UNK         0.0396 
     41 CB         28.4686  -47.6369  -52.4368 C.3       6 UNK        -0.1801 
     42 N          29.3275  -47.5213  -54.7359 N.am      6 UNK        -0.4747 
     43 C          29.3707  -47.2122  -56.0396 C.2       6 UNK         0.5012 
     44 O          28.3910  -46.8138  -56.6696 O.2       6 UNK        -0.5003 
     45 CA         30.7120  -47.4360  -56.7730 C.3       5 UNK         0.0782 
     46 C46        31.6031  -46.1690  -56.7682 C.3       11 UNK        -0.0868 
     47 S47        31.4836  -45.2516  -58.3395 S.3       11 UNK        -0.2515 
     48 C48        32.6442  -43.8813  -58.0307 C.3       11 UNK         0.0199 
     49 N          31.4533  -48.6136  -56.3079 N.am      5 UNK        -0.4607 
     50 C          31.0114  -49.8729  -56.4091 C.2       4 UNK         0.5031 
     51 O          29.8738  -50.1638  -56.7749 O.2       4 UNK        -0.5119 
     52 CA         32.0056  -50.9909  -56.0798 C.3       4 UNK         0.0263 
     53 CB         32.8444  -51.3021  -57.3387 C.3       4 UNK        -0.1967 
     54 N          32.8513  -50.6467  -54.9303 N.am      4 UNK        -0.4237 
     55 C          33.7312  -51.4737  -54.3442 C.2       3 UNK         0.4908 
     56 O          33.9558  -52.6235  -54.7243 O.2       3 UNK        -0.5102 
     57 CA         34.4901  -50.9459  -53.1120 C.3       3 UNK         0.0241 
     58 CB         35.8124  -50.2891  -53.5390 C.3       3 UNK        -0.1971 
     59 N          33.7204  -50.0041  -52.2952 N.am      3 UNK        -0.4139 
     60 C          32.5814  -50.3049  -51.6518 C.2       2 UNK         0.5016 
     61 O          32.0803  -51.4298  -51.6471 O.2       2 UNK        -0.5319 
     62 CA         31.8652  -49.1786  -50.8823 C.3       2 UNK         0.0286 
     63 CB         31.9693  -49.4133  -49.3661 C.3       2 UNK        -0.1963 
     64 N          32.3352  -47.8225  -51.1784 N.am      2 UNK        -0.4790 
     65 C          32.2848  -47.1960  -52.3636 C.2       1 UNK         0.5024 
     66 O          31.8215  -47.7055  -53.3850 O.2       1 UNK        -0.4888 
     67 H67        35.8805  -45.0919  -49.8139 H         1 UNK         0.0892 
     68 H68        36.4165  -46.7738  -49.7990 H         1 UNK         0.0892 
     69 H69        37.1244  -45.6310  -50.9438 H         1 UNK         0.0892 
     70 H70        33.8853  -44.8410  -50.8062 H         1 UNK         0.3107 
     71 H71        33.2951  -45.6343  -53.4101 H         1 UNK         0.0773 
     72 H72        31.0801  -45.0348  -51.4073 H         1 UNK         0.0680 
     73 H73        31.1369  -44.6616  -53.1059 H         1 UNK         0.0680 
     74 H74        33.6880  -41.5154  -53.0016 H         1 UNK         0.0650 
     75 H75        34.1399  -43.1729  -53.3077 H         1 UNK         0.0650 
     76 H76        33.8511  -43.6908  -55.5844 H         1 UNK         0.1397 
     77 H77        30.4495  -42.3192  -57.7964 H         1 UNK         0.1363 
     78 H78        30.8994  -41.2272  -53.6758 H         1 UNK         0.1355 
     79 H79        29.2418  -40.0416  -55.2834 H         1 UNK         0.0707 
     80 H80        28.8949  -40.7829  -56.8228 H         1 UNK         0.0707 
     81 H81        28.9121  -43.8090  -56.3074 H         1 UNK         0.1034 
     82 H82        27.7866  -44.3620  -55.1371 H         1 UNK         0.1034 
     83 H83        26.0895  -42.9426  -56.8252 H         1 UNK         0.0482 
     84 H84        27.5165  -44.2016  -60.3167 H         1 UNK         0.3460 
     85 H85        26.6717  -45.2505  -59.2037 H         1 UNK         0.3460 
     86 H86        26.6830  -45.8255  -56.6734 H         1 UNK         0.2989 
     87 H87        24.0565  -46.7451  -55.8886 H         1 UNK         0.0559 
     88 H88        22.1357  -46.1229  -57.3034 H         1 UNK         0.0848 
     89 H89        22.5073  -47.8216  -57.5358 H         1 UNK         0.0848 
     90 H90        22.9812  -46.6388  -58.7546 H         1 UNK         0.0848 
     91 H91        25.4162  -48.3137  -56.5852 H         1 UNK         0.3144 
     92 H92        26.0323  -49.8734  -59.2619 H         1 UNK         0.0727 
     93 H93        28.4736  -48.0367  -59.0812 H         1 UNK         0.0790 
     94 H94        27.6368  -48.5417  -60.5376 H         1 UNK         0.0790 
     95 H95        28.5386  -49.7213  -59.6006 H         1 UNK         0.0790 
     96 H96        27.9531  -49.5566  -57.0960 H         1 UNK         0.3215 
     97 H97        25.9093  -50.9950  -54.6004 H         1 UNK         0.0863 
     98 H98        27.9296  -52.4172  -54.2374 H         1 UNK         0.0808 
     99 H99        28.4424  -52.1374  -55.9011 H         1 UNK         0.0808 
    100 H100       26.9568  -53.0106  -55.5728 H         1 UNK         0.0808 
    101 H101       28.5907  -49.8911  -54.7308 H         1 UNK         0.3118 
    102 H102       27.6307  -46.5255  -54.0613 H         1 UNK         0.0546 
    103 H103       28.9095  -48.6098  -52.2245 H         1 UNK         0.0828 
    104 H104       27.5802  -47.5406  -51.8112 H         1 UNK         0.0828 
    105 H105       29.1713  -46.8662  -52.1207 H         1 UNK         0.0828 
    106 H106       30.1957  -47.7858  -54.2755 H         1 UNK         0.3005 
    107 H107       30.4433  -47.6662  -57.8062 H         1 UNK         0.1257 
    108 H108       31.3586  -45.5104  -55.9323 H         1 UNK         0.0775 
    109 H109       32.6547  -46.4278  -56.6341 H         1 UNK         0.0775 
    110 H110       33.6505  -44.2809  -57.8953 H         1 UNK         0.0840 
    111 H111       32.6817  -43.2363  -58.9098 H         1 UNK         0.0840 
    112 H112       32.4028  -48.4488  -56.0109 H         1 UNK         0.2987 
    113 H113       31.4228  -51.8762  -55.8166 H         1 UNK         0.0785 
    114 H114       32.2039  -51.4493  -58.2098 H         1 UNK         0.0798 
    115 H115       33.4289  -52.2145  -57.2257 H         1 UNK         0.0798 
    116 H116       33.5337  -50.4906  -57.5745 H         1 UNK         0.0798 
    117 H117       32.6795  -49.7489  -54.4958 H         1 UNK         0.3079 
    118 H118       34.7263  -51.8067  -52.4828 H         1 UNK         0.0794 
    119 H119       36.4047  -49.9907  -52.6736 H         1 UNK         0.0786 
    120 H120       35.6431  -49.4006  -54.1489 H         1 UNK         0.0786 
    121 H121       36.4211  -50.9784  -54.1259 H         1 UNK         0.0786 
    122 H122       34.0789  -49.0577  -52.2328 H         1 UNK         0.3032 
    123 H123       30.8132  -49.2342  -51.1616 H         1 UNK         0.1094 
    124 H124       33.0014  -49.3519  -49.0186 H         1 UNK         0.0794 
    125 H125       31.3816  -48.6834  -48.8090 H         1 UNK         0.0794 
    126 H126       31.5929  -50.4009  -49.0947 H         1 UNK         0.0794 
    127 H127       32.7516  -47.3189  -50.4082 H         1 UNK         0.3016 
@<TRIPOS>BOND
     1    1    2 1    
     2    1   67 1    
     3    1   68 1    
     4    1   69 1    
     5    2    3 2    
     6    2    4 am   BACKBONE|DICT|INTERRES
     7    4    5 1    
     8    4   70 1    
     9    5    6 1    
    10    5   65 1    
    11    5   71 1    
    12    6    7 1    
    13    6   72 1    
    14    6   73 1    
    15    7    8 1    
    16    8    9 1    
    17    8   74 1    
    18    8   75 1    
    19    9   10 ar   
    20    9   14 ar   
    21   10   11 ar   
    22   10   76 1    
    23   11   12 ar   
    24   11   48 1    
    25   12   13 ar   
    26   12   77 1    
    27   13   14 ar   
    28   13   15 1    
    29   14   78 1    
    30   15   16 1    
    31   15   79 1    
    32   15   80 1    
    33   16   17 1    
    34   17   18 1    
    35   17   81 1    
    36   17   82 1    
    37   18   19 1    
    38   18   22 1    
    39   18   83 1    
    40   19   20 am   BACKBONE|DICT|INTERRES
    41   19   21 2    
    42   20   84 1    
    43   20   85 1    
    44   22   23 am   BACKBONE|DICT|INTERRES
    45   22   86 1    
    46   23   24 2    
    47   23   25 1    
    48   25   26 1    
    49   25   27 1    
    50   25   87 1    
    51   26   88 1    
    52   26   89 1    
    53   26   90 1    
    54   27   28 am   BACKBONE|DICT|INTERRES
    55   27   91 1    
    56   28   29 2    
    57   28   30 1    
    58   30   31 1    
    59   30   32 1    
    60   30   92 1    
    61   31   93 1    
    62   31   94 1    
    63   31   95 1    
    64   32   33 am   BACKBONE|DICT|INTERRES
    65   32   96 1    
    66   33   34 2    
    67   33   35 1    
    68   35   36 1    
    69   35   37 1    
    70   35   97 1    
    71   36   98 1    
    72   36   99 1    
    73   36  100 1    
    74   37   38 am   BACKBONE|DICT|INTERRES
    75   37  101 1    
    76   38   39 2    
    77   38   40 1    
    78   40   41 1    
    79   40   42 1    
    80   40  102 1    
    81   41  103 1    
    82   41  104 1    
    83   41  105 1    
    84   42   43 am   BACKBONE|DICT|INTERRES
    85   42  106 1    
    86   43   44 2    
    87   43   45 1    
    88   45   46 1    
    89   45   49 1    
    90   45  107 1    
    91   46   47 1    
    92   46  108 1    
    93   46  109 1    
    94   47   48 1    
    95   48  110 1    
    96   48  111 1    
    97   49   50 am   BACKBONE|DICT|INTERRES
    98   49  112 1    
    99   50   51 2    
   100   50   52 1    
   101   52   53 1    
   102   52   54 1    
   103   52  113 1    
   104   53  114 1    
   105   53  115 1    
   106   53  116 1    
   107   54   55 am   BACKBONE|DICT|INTERRES
   108   54  117 1    
   109   55   56 2    
   110   55   57 1    
   111   57   58 1    
   112   57   59 1    
   113   57  118 1    
   114   58  119 1    
   115   58  120 1    
   116   58  121 1    
   117   59   60 am   BACKBONE|DICT|INTERRES
   118   59  122 1    
   119   60   61 2    
   120   60   62 1    
   121   62   63 1    
   122   62   64 1    
   123   62  123 1    
   124   63  124 1    
   125   63  125 1    
   126   63  126 1    
   127   64   65 am   BACKBONE|DICT|INTERRES
   128   64  127 1    
   129   65   66 2    
@<TRIPOS>SUBSTRUCTURE
     1 UNK         1 GROUP             0       ****    0 ROOT    
