@<TRIPOS>MOLECULE
3R134
127   129    1
SMALL
USER_CHARGES


@<TRIPOS>ATOM
      1 CA         29.2002  -44.9653  -52.9779 C.3       0 UNK        -0.1968 
      2 C          30.0368  -44.5757  -51.7689 C.2       0 UNK         0.4852 
      3 O          29.7184  -43.5964  -51.0925 O.2       0 UNK        -0.5359 
      4 N          31.0973  -45.3378  -51.4951 N.am      1 UNK        -0.4300 
      5 CA         32.0009  -45.1734  -50.3589 C.3       1 UNK         0.0863 
      6 C6         33.2264  -44.2787  -50.7051 C.3       11 UNK        -0.0953 
      7 S7         34.2360  -44.8806  -52.1136 S.3       11 UNK        -0.2369 
      8 C8         33.9979  -43.5875  -53.3717 C.3       11 UNK         0.0226 
      9 C9         33.4574  -44.1494  -54.6790 C.ar      11 UNK        -0.0699 
     10 C10        34.3125  -44.8080  -55.5686 C.ar      11 UNK        -0.0804 
     11 C11        33.8498  -45.2414  -56.8160 C.ar      11 UNK        -0.0871 
     12 C12        32.5167  -45.0055  -57.1676 C.ar      11 UNK        -0.1008 
     13 C13        31.6454  -44.3713  -56.2780 C.ar      11 UNK        -0.0735 
     14 C14        32.1193  -43.9517  -55.0316 C.ar      11 UNK        -0.0945 
     15 C15        30.2082  -44.0947  -56.6904 C.3       11 UNK         0.0169 
     16 S16        29.1895  -45.5962  -56.6044 S.3       11 UNK        -0.2669 
     17 C17        27.5740  -44.9404  -57.1371 C.3       11 UNK        -0.0850 
     18 CA         26.5666  -44.7355  -55.9767 C.3       10 UNK         0.0855 
     19 C          25.3028  -43.9871  -56.5010 C.2       10 UNK         0.5543 
     20 N          24.1230  -44.5957  -56.5226 N.am      10 UNK        -0.7343 
     21 O          25.3999  -42.8288  -56.8980 O.2       10 UNK        -0.5027 
     22 N          26.2985  -45.9872  -55.2394 N.am      10 UNK        -0.4495 
     23 C          25.6674  -46.0398  -54.0550 C.2       10 UNK         0.4903 
     24 O          25.2933  -45.0364  -53.4465 O.2       10 UNK        -0.4860 
     25 CA         25.3965  -47.4257  -53.4418 C.3       9 UNK         0.0227 
     26 CB         24.1286  -47.4527  -52.5651 C.3       9 UNK        -0.1964 
     27 N          25.3041  -48.4611  -54.4709 N.am      9 UNK        -0.4231 
     28 C          25.7770  -49.7063  -54.3500 C.2       9 UNK         0.5014 
     29 O          26.2487  -50.1582  -53.3054 O.2       9 UNK        -0.5270 
     30 CA         25.7323  -50.6161  -55.5961 C.3       8 UNK         0.0284 
     31 CB         24.6003  -51.6482  -55.4567 C.3       8 UNK        -0.1977 
     32 N          25.6110  -49.9538  -56.9053 N.am      8 UNK        -0.4342 
     33 C          26.4025  -48.9875  -57.3891 C.2       8 UNK         0.5039 
     34 O          27.2445  -48.3808  -56.7241 O.2       8 UNK        -0.5547 
     35 CA         26.1903  -48.5894  -58.8511 C.3       7 UNK         0.0281 
     36 CB         24.9849  -47.6372  -58.9878 C.3       7 UNK        -0.1963 
     37 N          27.4208  -47.9430  -59.2949 N.am      7 UNK        -0.4444 
     38 C          27.7599  -47.6342  -60.5491 C.2       7 UNK         0.5104 
     39 O          27.0501  -47.8632  -61.5290 O.2       7 UNK        -0.5100 
     40 CA         29.1230  -46.9532  -60.7506 C.3       6 UNK         0.0396 
     41 CB         28.9765  -45.4234  -60.7357 C.3       6 UNK        -0.1801 
     42 N          30.1225  -47.3546  -59.7551 N.am      6 UNK        -0.4747 
     43 C          30.8933  -48.4458  -59.8716 C.2       6 UNK         0.5012 
     44 O          30.7803  -49.2721  -60.7782 O.2       6 UNK        -0.5003 
     45 CA         32.0111  -48.6170  -58.8257 C.3       5 UNK         0.0782 
     46 C46        33.2533  -47.7827  -59.2384 C.3       11 UNK        -0.0868 
     47 S47        34.5566  -47.6961  -57.9599 S.3       11 UNK        -0.2515 
     48 C48        34.8119  -45.8967  -57.8014 C.3       11 UNK         0.0199 
     49 N          31.5589  -48.3454  -57.4575 N.am      5 UNK        -0.4607 
     50 C          30.7529  -49.1552  -56.7598 C.2       4 UNK         0.5031 
     51 O          30.2010  -50.1492  -57.2337 O.2       4 UNK        -0.5119 
     52 CA         30.6620  -48.8627  -55.2583 C.3       4 UNK         0.0263 
     53 CB         29.6145  -49.7198  -54.5242 C.3       4 UNK        -0.1967 
     54 N          31.9787  -49.1100  -54.6772 N.am      4 UNK        -0.4237 
     55 C          32.5046  -48.4247  -53.6603 C.2       3 UNK         0.4908 
     56 O          31.9386  -47.4787  -53.1067 O.2       3 UNK        -0.5102 
     57 CA         33.8988  -48.8743  -53.1950 C.3       3 UNK         0.0241 
     58 CB         34.9850  -48.3371  -54.1406 C.3       3 UNK        -0.1971 
     59 N          34.1461  -48.3506  -51.8559 N.am      3 UNK        -0.4139 
     60 C          34.1018  -49.0508  -50.7151 C.2       2 UNK         0.5016 
     61 O          34.0168  -50.2782  -50.6596 O.2       2 UNK        -0.5319 
     62 CA         34.1351  -48.2335  -49.4069 C.3       2 UNK         0.0286 
     63 CB         35.5655  -48.1616  -48.8491 C.3       2 UNK        -0.1963 
     64 N          33.6203  -46.8725  -49.5953 N.am      2 UNK        -0.4790 
     65 C          32.3317  -46.5822  -49.8260 C.2       1 UNK         0.5024 
     66 O          31.4204  -47.3972  -49.6635 O.2       1 UNK        -0.4888 
     67 H67        29.6616  -45.7725  -53.5476 H         1 UNK         0.0892 
     68 H68        28.2141  -45.2963  -52.6562 H         1 UNK         0.0892 
     69 H69        29.0732  -44.1123  -53.6431 H         1 UNK         0.0892 
     70 H70        31.3146  -46.1411  -52.0884 H         1 UNK         0.3107 
     71 H71        31.4584  -44.6878  -49.5450 H         1 UNK         0.0773 
     72 H72        32.8728  -43.2683  -50.9106 H         1 UNK         0.0680 
     73 H73        33.8770  -44.1682  -49.8362 H         1 UNK         0.0680 
     74 H74        34.9587  -43.1051  -53.5566 H         1 UNK         0.0650 
     75 H75        33.3383  -42.8007  -53.0053 H         1 UNK         0.0650 
     76 H76        35.3486  -44.9561  -55.2960 H         1 UNK         0.1397 
     77 H77        32.1503  -45.2956  -58.1402 H         1 UNK         0.1363 
     78 H78        31.4567  -43.4380  -54.3495 H         1 UNK         0.1355 
     79 H79        29.7677  -43.3249  -56.0548 H         1 UNK         0.0707 
     80 H80        30.1926  -43.7025  -57.7085 H         1 UNK         0.0707 
     81 H81        27.7377  -44.0024  -57.6715 H         1 UNK         0.1034 
     82 H82        27.1552  -45.6261  -57.8718 H         1 UNK         0.1034 
     83 H83        27.0346  -44.0516  -55.2661 H         1 UNK         0.0482 
     84 H84        24.0243  -45.5353  -56.1784 H         1 UNK         0.3460 
     85 H85        23.3174  -44.0945  -56.8622 H         1 UNK         0.3460 
     86 H86        26.6605  -46.8387  -55.6619 H         1 UNK         0.2989 
     87 H87        26.2572  -47.6318  -52.8020 H         1 UNK         0.0559 
     88 H88        23.2360  -47.2114  -53.1433 H         1 UNK         0.0848 
     89 H89        24.1961  -46.7321  -51.7491 H         1 UNK         0.0848 
     90 H90        23.9801  -48.4334  -52.1129 H         1 UNK         0.0848 
     91 H91        24.9380  -48.1790  -55.3684 H         1 UNK         0.3144 
     92 H92        26.6803  -51.1577  -55.6118 H         1 UNK         0.0727 
     93 H93        24.6382  -52.3926  -56.2522 H         1 UNK         0.0790 
     94 H94        23.6182  -51.1742  -55.4837 H         1 UNK         0.0790 
     95 H95        24.6748  -52.1878  -54.5112 H         1 UNK         0.0790 
     96 H96        24.9237  -50.3519  -57.5297 H         1 UNK         0.3215 
     97 H97        26.0296  -49.4897  -59.4477 H         1 UNK         0.0863 
     98 H98        24.8215  -47.3416  -60.0240 H         1 UNK         0.0808 
     99 H99        25.1155  -46.7287  -58.4005 H         1 UNK         0.0808 
    100 H100       24.0661  -48.1152  -58.6464 H         1 UNK         0.0808 
    101 H101       28.0730  -47.7699  -58.5373 H         1 UNK         0.3118 
    102 H102       29.4810  -47.2347  -61.7436 H         1 UNK         0.0546 
    103 H103       28.2374  -45.0948  -61.4678 H         1 UNK         0.0828 
    104 H104       29.9176  -44.9339  -60.9866 H         1 UNK         0.0828 
    105 H105       28.6576  -45.0530  -59.7631 H         1 UNK         0.0828 
    106 H106       30.2524  -46.7493  -58.9566 H         1 UNK         0.3005 
    107 H107       32.3068  -49.6688  -58.8547 H         1 UNK         0.1257 
    108 H108       32.9684  -46.7731  -59.5338 H         1 UNK         0.0775 
    109 H109       33.7037  -48.2203  -60.1314 H         1 UNK         0.0775 
    110 H110       35.8416  -45.7317  -57.4804 H         1 UNK         0.0840 
    111 H111       34.7306  -45.4164  -58.7775 H         1 UNK         0.0840 
    112 H112       32.0098  -47.5756  -56.9822 H         1 UNK         0.2987 
    113 H113       30.3909  -47.8115  -55.1459 H         1 UNK         0.0785 
    114 H114       28.6310  -49.5918  -54.9698 H         1 UNK         0.0798 
    115 H115       29.5322  -49.4339  -53.4756 H         1 UNK         0.0798 
    116 H116       29.8562  -50.7821  -54.5667 H         1 UNK         0.0798 
    117 H117       32.5172  -49.8487  -55.1094 H         1 UNK         0.3079 
    118 H118       33.9348  -49.9657  -53.1903 H         1 UNK         0.0794 
    119 H119       34.9521  -47.2501  -54.2150 H         1 UNK         0.0786 
    120 H120       34.8638  -48.7382  -55.1469 H         1 UNK         0.0786 
    121 H121       35.9815  -48.6182  -53.7996 H         1 UNK         0.0786 
    122 H122       34.1448  -47.3417  -51.7878 H         1 UNK         0.3032 
    123 H123       33.5039  -48.7491  -48.6792 H         1 UNK         0.1094 
    124 H124       36.2431  -47.6521  -49.5355 H         1 UNK         0.0794 
    125 H125       35.5934  -47.6347  -47.8951 H         1 UNK         0.0794 
    126 H126       35.9667  -49.1615  -48.6774 H         1 UNK         0.0794 
    127 H127       34.3055  -46.1445  -49.7448 H         1 UNK         0.3016 
@<TRIPOS>BOND
     1    1    2 1    
     2    1   67 1    
     3    1   68 1    
     4    1   69 1    
     5    2    3 2    
     6    2    4 am   BACKBONE|DICT|INTERRES
     7    4    5 1    
     8    4   70 1    
     9    5    6 1    
    10    5   65 1    
    11    5   71 1    
    12    6    7 1    
    13    6   72 1    
    14    6   73 1    
    15    7    8 1    
    16    8    9 1    
    17    8   74 1    
    18    8   75 1    
    19    9   10 ar   
    20    9   14 ar   
    21   10   11 ar   
    22   10   76 1    
    23   11   12 ar   
    24   11   48 1    
    25   12   13 ar   
    26   12   77 1    
    27   13   14 ar   
    28   13   15 1    
    29   14   78 1    
    30   15   16 1    
    31   15   79 1    
    32   15   80 1    
    33   16   17 1    
    34   17   18 1    
    35   17   81 1    
    36   17   82 1    
    37   18   19 1    
    38   18   22 1    
    39   18   83 1    
    40   19   20 am   BACKBONE|DICT|INTERRES
    41   19   21 2    
    42   20   84 1    
    43   20   85 1    
    44   22   23 am   BACKBONE|DICT|INTERRES
    45   22   86 1    
    46   23   24 2    
    47   23   25 1    
    48   25   26 1    
    49   25   27 1    
    50   25   87 1    
    51   26   88 1    
    52   26   89 1    
    53   26   90 1    
    54   27   28 am   BACKBONE|DICT|INTERRES
    55   27   91 1    
    56   28   29 2    
    57   28   30 1    
    58   30   31 1    
    59   30   32 1    
    60   30   92 1    
    61   31   93 1    
    62   31   94 1    
    63   31   95 1    
    64   32   33 am   BACKBONE|DICT|INTERRES
    65   32   96 1    
    66   33   34 2    
    67   33   35 1    
    68   35   36 1    
    69   35   37 1    
    70   35   97 1    
    71   36   98 1    
    72   36   99 1    
    73   36  100 1    
    74   37   38 am   BACKBONE|DICT|INTERRES
    75   37  101 1    
    76   38   39 2    
    77   38   40 1    
    78   40   41 1    
    79   40   42 1    
    80   40  102 1    
    81   41  103 1    
    82   41  104 1    
    83   41  105 1    
    84   42   43 am   BACKBONE|DICT|INTERRES
    85   42  106 1    
    86   43   44 2    
    87   43   45 1    
    88   45   46 1    
    89   45   49 1    
    90   45  107 1    
    91   46   47 1    
    92   46  108 1    
    93   46  109 1    
    94   47   48 1    
    95   48  110 1    
    96   48  111 1    
    97   49   50 am   BACKBONE|DICT|INTERRES
    98   49  112 1    
    99   50   51 2    
   100   50   52 1    
   101   52   53 1    
   102   52   54 1    
   103   52  113 1    
   104   53  114 1    
   105   53  115 1    
   106   53  116 1    
   107   54   55 am   BACKBONE|DICT|INTERRES
   108   54  117 1    
   109   55   56 2    
   110   55   57 1    
   111   57   58 1    
   112   57   59 1    
   113   57  118 1    
   114   58  119 1    
   115   58  120 1    
   116   58  121 1    
   117   59   60 am   BACKBONE|DICT|INTERRES
   118   59  122 1    
   119   60   61 2    
   120   60   62 1    
   121   62   63 1    
   122   62   64 1    
   123   62  123 1    
   124   63  124 1    
   125   63  125 1    
   126   63  126 1    
   127   64   65 am   BACKBONE|DICT|INTERRES
   128   64  127 1    
   129   65   66 2    
@<TRIPOS>SUBSTRUCTURE
     1 UNK         1 GROUP             0       ****    0 ROOT    
