@<TRIPOS>MOLECULE
3R134
127   129    1
SMALL
USER_CHARGES


@<TRIPOS>ATOM
      1 CA         36.4014  -49.5649  -57.2803 C.3       0 UNK        -0.1968 
      2 C          35.2094  -48.9269  -56.5847 C.2       0 UNK         0.4852 
      3 O          34.6035  -49.5573  -55.7176 O.2       0 UNK        -0.5359 
      4 N          34.8794  -47.6770  -56.9429 N.am      1 UNK        -0.4300 
      5 CA         33.7465  -46.8947  -56.4237 C.3       1 UNK         0.0863 
      6 C6         33.6899  -45.4945  -57.0877 C.3       11 UNK        -0.0953 
      7 S7         32.0152  -44.7743  -57.1222 S.3       11 UNK        -0.2369 
      8 C8         32.0792  -43.5162  -55.8037 C.3       11 UNK         0.0226 
      9 C9         31.0777  -43.8107  -54.6955 C.ar      11 UNK        -0.0699 
     10 C10        31.5100  -44.1261  -53.4042 C.ar      11 UNK        -0.0804 
     11 C11        30.5842  -44.4024  -52.3927 C.ar      11 UNK        -0.0871 
     12 C12        29.2151  -44.3232  -52.6700 C.ar      11 UNK        -0.1008 
     13 C13        28.7701  -44.0244  -53.9604 C.ar      11 UNK        -0.0735 
     14 C14        29.7078  -43.7700  -54.9649 C.ar      11 UNK        -0.0945 
     15 C15        27.2850  -44.0609  -54.2937 C.3       11 UNK         0.0169 
     16 S16        26.7371  -42.5609  -55.1793 S.3       11 UNK        -0.2669 
     17 C17        25.2661  -43.1205  -56.1177 C.3       11 UNK        -0.0850 
     18 CA         25.4463  -44.4068  -56.9833 C.3       10 UNK         0.0855 
     19 C          24.1821  -44.7566  -57.8249 C.2       10 UNK         0.5543 
     20 N          24.3174  -45.3817  -58.9895 N.am      10 UNK        -0.7343 
     21 O          23.0592  -44.4866  -57.4056 O.2       10 UNK        -0.5027 
     22 N          26.7088  -44.4486  -57.7413 N.am      10 UNK        -0.4495 
     23 C          27.0795  -43.6112  -58.7214 C.2       10 UNK         0.4903 
     24 O          26.4195  -42.6319  -59.0706 O.2       10 UNK        -0.4860 
     25 CA         28.3981  -43.9149  -59.4642 C.3       9 UNK         0.0227 
     26 CB         29.4738  -42.8684  -59.1293 C.3       9 UNK        -0.1964 
     27 N          28.9279  -45.2611  -59.2173 N.am      9 UNK        -0.4231 
     28 C          28.3614  -46.3905  -59.6656 C.2       9 UNK         0.5014 
     29 O          27.3549  -46.4093  -60.3781 O.2       9 UNK        -0.5270 
     30 CA         28.9804  -47.7321  -59.2259 C.3       8 UNK         0.0284 
     31 CB         30.2929  -47.6093  -58.4197 C.3       8 UNK        -0.1977 
     32 N          28.0073  -48.5455  -58.4887 N.am      8 UNK        -0.4342 
     33 C          27.3436  -48.1985  -57.3752 C.2       8 UNK         0.5039 
     34 O          27.4703  -47.1095  -56.8108 O.2       8 UNK        -0.5547 
     35 CA         26.3568  -49.2242  -56.7971 C.3       7 UNK         0.0281 
     36 CB         26.3955  -50.6134  -57.4721 C.3       7 UNK        -0.1963 
     37 N          26.6150  -49.3656  -55.3674 N.am      7 UNK        -0.4444 
     38 C          25.6828  -49.6106  -54.4377 C.2       7 UNK         0.5104 
     39 O          24.4847  -49.7369  -54.6961 O.2       7 UNK        -0.5100 
     40 CA         26.1417  -49.7738  -52.9736 C.3       6 UNK         0.0396 
     41 CB         26.0031  -51.2395  -52.5295 C.3       6 UNK        -0.1801 
     42 N          27.5186  -49.3392  -52.7325 N.am      6 UNK        -0.4747 
     43 C          27.9252  -48.0629  -52.6842 C.2       6 UNK         0.5012 
     44 O          27.1531  -47.1062  -52.7467 O.2       6 UNK        -0.5003 
     45 CA         29.4428  -47.8075  -52.5441 C.3       5 UNK         0.0782 
     46 C46        29.7687  -47.3452  -51.1004 C.3       11 UNK        -0.0868 
     47 S47        31.4322  -46.6142  -50.9529 S.3       11 UNK        -0.2515 
     48 C48        31.0661  -44.8274  -51.0132 C.3       11 UNK         0.0199 
     49 N          30.2786  -48.9448  -52.9625 N.am      5 UNK        -0.4607 
     50 C          30.3228  -49.4607  -54.1989 C.2       4 UNK         0.5031 
     51 O          29.5927  -49.0754  -55.1117 O.2       4 UNK        -0.5119 
     52 CA         31.3032  -50.6240  -54.4514 C.3       4 UNK         0.0263 
     53 CB         31.4537  -50.9436  -55.9513 C.3       4 UNK        -0.1967 
     54 N          32.6348  -50.3840  -53.8933 N.am      4 UNK        -0.4237 
     55 C          32.9970  -50.5651  -52.6164 C.2       3 UNK         0.4908 
     56 O          32.2174  -50.9179  -51.7311 O.2       3 UNK        -0.5102 
     57 CA         34.4631  -50.2767  -52.2664 C.3       3 UNK         0.0241 
     58 CB         35.3905  -51.3709  -52.8224 C.3       3 UNK        -0.1971 
     59 N          34.8551  -48.9741  -52.8029 N.am      3 UNK        -0.4139 
     60 C          34.9097  -47.8445  -52.0842 C.2       2 UNK         0.5016 
     61 O          34.7971  -47.8110  -50.8581 O.2       2 UNK        -0.5319 
     62 CA         35.1404  -46.5205  -52.8407 C.3       2 UNK         0.0286 
     63 CB         36.5584  -45.9871  -52.5779 C.3       2 UNK        -0.1963 
     64 N          34.9263  -46.5984  -54.2896 N.am      2 UNK        -0.4790 
     65 C          33.7382  -46.7865  -54.8841 C.2       1 UNK         0.5024 
     66 O          32.6847  -46.9281  -54.2702 O.2       1 UNK        -0.4888 
     67 H67        37.1644  -49.8282  -56.5483 H         1 UNK         0.0892 
     68 H68        36.0910  -50.4759  -57.7912 H         1 UNK         0.0892 
     69 H69        36.8510  -48.8987  -58.0163 H         1 UNK         0.0892 
     70 H70        35.4290  -47.2191  -57.6561 H         1 UNK         0.3107 
     71 H71        32.8488  -47.4491  -56.7065 H         1 UNK         0.0773 
     72 H72        33.9895  -45.5741  -58.1339 H         1 UNK         0.0680 
     73 H73        34.4046  -44.8028  -56.6384 H         1 UNK         0.0680 
     74 H74        31.8490  -42.5434  -56.2400 H         1 UNK         0.0650 
     75 H75        33.0875  -43.4347  -55.3966 H         1 UNK         0.0650 
     76 H76        32.5681  -44.1904  -53.1924 H         1 UNK         0.1397 
     77 H77        28.4946  -44.5463  -51.8951 H         1 UNK         0.1363 
     78 H78        29.3653  -43.5559  -55.9660 H         1 UNK         0.1355 
     79 H79        27.1254  -44.9550  -54.8926 H         1 UNK         0.0707 
     80 H80        26.6808  -44.1805  -53.3932 H         1 UNK         0.0707 
     81 H81        24.4512  -43.2640  -55.4060 H         1 UNK         0.1034 
     82 H82        24.9565  -42.2903  -56.7548 H         1 UNK         0.1034 
     83 H83        25.5055  -45.2481  -56.2948 H         1 UNK         0.0482 
     84 H84        25.2347  -45.6141  -59.3422 H         1 UNK         0.3460 
     85 H85        23.4959  -45.6131  -59.5250 H         1 UNK         0.3460 
     86 H86        27.2863  -45.2592  -57.5367 H         1 UNK         0.2989 
     87 H87        28.1837  -43.8361  -60.5321 H         1 UNK         0.0559 
     88 H88        29.7340  -42.8739  -58.0724 H         1 UNK         0.0848 
     89 H89        29.1266  -41.8627  -59.3701 H         1 UNK         0.0848 
     90 H90        30.3869  -43.0386  -59.7000 H         1 UNK         0.0848 
     91 H91        29.7335  -45.3336  -58.6111 H         1 UNK         0.3144 
     92 H92        29.2087  -48.2740  -60.1448 H         1 UNK         0.0727 
     93 H93        30.7107  -48.5937  -58.2096 H         1 UNK         0.0790 
     94 H94        30.1416  -47.1153  -57.4587 H         1 UNK         0.0790 
     95 H95        31.0518  -47.0554  -58.9735 H         1 UNK         0.0790 
     96 H96        27.8013  -49.4481  -58.8924 H         1 UNK         0.3215 
     97 H97        25.3626  -48.7963  -56.9435 H         1 UNK         0.0863 
     98 H98        25.6692  -51.2882  -57.0186 H         1 UNK         0.0808 
     99 H99        27.3770  -51.0811  -57.3814 H         1 UNK         0.0808 
    100 H100       26.1432  -50.5516  -58.5314 H         1 UNK         0.0808 
    101 H101       27.5788  -49.2017  -55.0861 H         1 UNK         0.3118 
    102 H102       25.4767  -49.1674  -52.3551 H         1 UNK         0.0546 
    103 H103       26.6447  -51.9009  -53.1130 H         1 UNK         0.0828 
    104 H104       24.9774  -51.5901  -52.6530 H         1 UNK         0.0828 
    105 H105       26.2592  -51.3627  -51.4771 H         1 UNK         0.0828 
    106 H106       28.2212  -50.0616  -52.6670 H         1 UNK         0.3005 
    107 H107       29.6729  -46.9923  -53.2340 H         1 UNK         0.1257 
    108 H108       29.7024  -48.1877  -50.4097 H         1 UNK         0.0775 
    109 H109       29.0415  -46.6142  -50.7423 H         1 UNK         0.0775 
    110 H110       30.3285  -44.5747  -50.2499 H         1 UNK         0.0840 
    111 H111       31.9705  -44.2747  -50.7547 H         1 UNK         0.0840 
    112 H112       30.9080  -49.3253  -52.2662 H         1 UNK         0.2987 
    113 H113       30.8774  -51.5052  -53.9673 H         1 UNK         0.0785 
    114 H114       32.1200  -51.7912  -56.1119 H         1 UNK         0.0798 
    115 H115       31.8575  -50.0926  -56.5012 H         1 UNK         0.0798 
    116 H116       30.4928  -51.1987  -56.4004 H         1 UNK         0.0798 
    117 H117       33.3405  -50.0687  -54.5583 H         1 UNK         0.3079 
    118 H118       34.5545  -50.2843  -51.1782 H         1 UNK         0.0794 
    119 H119       35.1126  -52.3509  -52.4324 H         1 UNK         0.0786 
    120 H120       36.4267  -51.1905  -52.5363 H         1 UNK         0.0786 
    121 H121       35.3515  -51.4302  -53.9106 H         1 UNK         0.0786 
    122 H122       34.9335  -48.9098  -53.8119 H         1 UNK         0.3032 
    123 H123       34.4223  -45.8038  -52.4356 H         1 UNK         0.1094 
    124 H124       36.7045  -45.0059  -53.0299 H         1 UNK         0.0794 
    125 H125       36.7432  -45.8782  -51.5082 H         1 UNK         0.0794 
    126 H126       37.3217  -46.6586  -52.9731 H         1 UNK         0.0794 
    127 H127       35.7458  -46.5188  -54.8746 H         1 UNK         0.3016 
@<TRIPOS>BOND
     1    1    2 1    
     2    1   67 1    
     3    1   68 1    
     4    1   69 1    
     5    2    3 2    
     6    2    4 am   BACKBONE|DICT|INTERRES
     7    4    5 1    
     8    4   70 1    
     9    5    6 1    
    10    5   65 1    
    11    5   71 1    
    12    6    7 1    
    13    6   72 1    
    14    6   73 1    
    15    7    8 1    
    16    8    9 1    
    17    8   74 1    
    18    8   75 1    
    19    9   10 ar   
    20    9   14 ar   
    21   10   11 ar   
    22   10   76 1    
    23   11   12 ar   
    24   11   48 1    
    25   12   13 ar   
    26   12   77 1    
    27   13   14 ar   
    28   13   15 1    
    29   14   78 1    
    30   15   16 1    
    31   15   79 1    
    32   15   80 1    
    33   16   17 1    
    34   17   18 1    
    35   17   81 1    
    36   17   82 1    
    37   18   19 1    
    38   18   22 1    
    39   18   83 1    
    40   19   20 am   BACKBONE|DICT|INTERRES
    41   19   21 2    
    42   20   84 1    
    43   20   85 1    
    44   22   23 am   BACKBONE|DICT|INTERRES
    45   22   86 1    
    46   23   24 2    
    47   23   25 1    
    48   25   26 1    
    49   25   27 1    
    50   25   87 1    
    51   26   88 1    
    52   26   89 1    
    53   26   90 1    
    54   27   28 am   BACKBONE|DICT|INTERRES
    55   27   91 1    
    56   28   29 2    
    57   28   30 1    
    58   30   31 1    
    59   30   32 1    
    60   30   92 1    
    61   31   93 1    
    62   31   94 1    
    63   31   95 1    
    64   32   33 am   BACKBONE|DICT|INTERRES
    65   32   96 1    
    66   33   34 2    
    67   33   35 1    
    68   35   36 1    
    69   35   37 1    
    70   35   97 1    
    71   36   98 1    
    72   36   99 1    
    73   36  100 1    
    74   37   38 am   BACKBONE|DICT|INTERRES
    75   37  101 1    
    76   38   39 2    
    77   38   40 1    
    78   40   41 1    
    79   40   42 1    
    80   40  102 1    
    81   41  103 1    
    82   41  104 1    
    83   41  105 1    
    84   42   43 am   BACKBONE|DICT|INTERRES
    85   42  106 1    
    86   43   44 2    
    87   43   45 1    
    88   45   46 1    
    89   45   49 1    
    90   45  107 1    
    91   46   47 1    
    92   46  108 1    
    93   46  109 1    
    94   47   48 1    
    95   48  110 1    
    96   48  111 1    
    97   49   50 am   BACKBONE|DICT|INTERRES
    98   49  112 1    
    99   50   51 2    
   100   50   52 1    
   101   52   53 1    
   102   52   54 1    
   103   52  113 1    
   104   53  114 1    
   105   53  115 1    
   106   53  116 1    
   107   54   55 am   BACKBONE|DICT|INTERRES
   108   54  117 1    
   109   55   56 2    
   110   55   57 1    
   111   57   58 1    
   112   57   59 1    
   113   57  118 1    
   114   58  119 1    
   115   58  120 1    
   116   58  121 1    
   117   59   60 am   BACKBONE|DICT|INTERRES
   118   59  122 1    
   119   60   61 2    
   120   60   62 1    
   121   62   63 1    
   122   62   64 1    
   123   62  123 1    
   124   63  124 1    
   125   63  125 1    
   126   63  126 1    
   127   64   65 am   BACKBONE|DICT|INTERRES
   128   64  127 1    
   129   65   66 2    
@<TRIPOS>SUBSTRUCTURE
     1 UNK         1 GROUP             0       ****    0 ROOT    
