@<TRIPOS>MOLECULE
3R134
127   129    1
SMALL
USER_CHARGES


@<TRIPOS>ATOM
      1 CA         39.2216  -45.1575  -52.3930 C.3       0 UNK        -0.1968 
      2 C          38.1226  -45.7691  -53.2493 C.2       0 UNK         0.4852 
      3 O          38.3820  -46.7220  -53.9857 O.2       0 UNK        -0.5359 
      4 N          36.9009  -45.2256  -53.1603 N.am      1 UNK        -0.4300 
      5 CA         35.7189  -45.6834  -53.9024 C.3       1 UNK         0.0863 
      6 C6         34.5526  -44.6763  -53.8028 C.3       11 UNK        -0.0953 
      7 S7         34.9347  -43.0448  -54.5169 S.3       11 UNK        -0.2369 
      8 C8         33.6801  -42.0071  -53.6969 C.3       11 UNK         0.0226 
      9 C9         32.2696  -42.5421  -53.9087 C.ar      11 UNK        -0.0699 
     10 C10        31.6340  -43.2686  -52.8965 C.ar      11 UNK        -0.0804 
     11 C11        30.3528  -43.7957  -53.0854 C.ar      11 UNK        -0.0871 
     12 C12        29.7082  -43.5802  -54.3116 C.ar      11 UNK        -0.1008 
     13 C13        30.3232  -42.8370  -55.3235 C.ar      11 UNK        -0.0735 
     14 C14        31.6063  -42.3232  -55.1188 C.ar      11 UNK        -0.0945 
     15 C15        29.5912  -42.5844  -56.6318 C.3       11 UNK         0.0169 
     16 S16        29.6000  -44.0652  -57.6822 S.3       11 UNK        -0.2669 
     17 C17        28.5737  -43.5011  -59.0837 C.3       11 UNK        -0.0850 
     18 CA         27.0424  -43.5737  -58.8249 C.3       10 UNK         0.0855 
     19 C          26.2629  -43.2256  -60.1272 C.2       10 UNK         0.5543 
     20 N          25.5875  -44.1715  -60.7701 N.am      10 UNK        -0.7343 
     21 O          26.2781  -42.0764  -60.5605 O.2       10 UNK        -0.5027 
     22 N          26.6596  -44.8427  -58.1910 N.am      10 UNK        -0.4495 
     23 C          25.4665  -45.1441  -57.6632 C.2       10 UNK         0.4903 
     24 O          24.5254  -44.3524  -57.5993 O.2       10 UNK        -0.4860 
     25 CA         25.3113  -46.5701  -57.0952 C.3       9 UNK         0.0227 
     26 CB         23.8745  -47.1163  -57.2271 C.3       9 UNK        -0.1964 
     27 N          26.2953  -47.5214  -57.6320 N.am      9 UNK        -0.4231 
     28 C          26.4363  -47.9144  -58.9082 C.2       9 UNK         0.5014 
     29 O          25.6892  -47.5655  -59.8232 O.2       9 UNK        -0.5270 
     30 CA         27.6441  -48.8031  -59.2331 C.3       8 UNK         0.0284 
     31 CB         28.8628  -47.9285  -59.5788 C.3       8 UNK        -0.1977 
     32 N          27.9902  -49.6911  -58.1194 N.am      8 UNK        -0.4342 
     33 C          27.9375  -51.0278  -58.1679 C.2       8 UNK         0.5039 
     34 O          27.5775  -51.6687  -59.1568 O.2       8 UNK        -0.5547 
     35 CA         28.3758  -51.7908  -56.9079 C.3       7 UNK         0.0281 
     36 CB         29.9069  -51.9261  -56.8612 C.3       7 UNK        -0.1963 
     37 N          27.9044  -51.1922  -55.6585 N.am      7 UNK        -0.4444 
     38 C          26.6322  -51.2029  -55.2366 C.2       7 UNK         0.5104 
     39 O          25.6922  -51.6445  -55.8975 O.2       7 UNK        -0.5100 
     40 CA         26.3664  -50.6484  -53.8288 C.3       6 UNK         0.0396 
     41 CB         26.7421  -51.6911  -52.7628 C.3       6 UNK        -0.1801 
     42 N          27.1269  -49.4210  -53.5926 N.am      6 UNK        -0.4747 
     43 C          26.6100  -48.1857  -53.6361 C.2       6 UNK         0.5012 
     44 O          25.4112  -47.9573  -53.7983 O.2       6 UNK        -0.5003 
     45 CA         27.5782  -46.9898  -53.4826 C.3       5 UNK         0.0782 
     46 C46        27.5201  -46.4197  -52.0408 C.3       11 UNK        -0.0868 
     47 S47        27.8936  -44.6368  -51.9757 S.3       11 UNK        -0.2515 
     48 C48        29.7197  -44.6068  -51.9526 C.3       11 UNK         0.0199 
     49 N          28.9580  -47.3001  -53.8816 N.am      5 UNK        -0.4607 
     50 C          29.3511  -47.6567  -55.1108 C.2       4 UNK         0.5031 
     51 O          28.5854  -47.7678  -56.0681 O.2       4 UNK        -0.5119 
     52 CA         30.8358  -48.0213  -55.2926 C.3       4 UNK         0.0263 
     53 CB         31.6460  -46.7509  -55.5837 C.3       4 UNK        -0.1967 
     54 N          31.4513  -48.7548  -54.1735 N.am      4 UNK        -0.4237 
     55 C          30.9494  -49.8450  -53.5701 C.2       3 UNK         0.4908 
     56 O          29.8515  -50.3236  -53.8560 O.2       3 UNK        -0.5102 
     57 CA         31.7773  -50.5435  -52.4735 C.3       3 UNK         0.0241 
     58 CB         31.8543  -52.0594  -52.7326 C.3       3 UNK        -0.1971 
     59 N          33.1386  -50.0323  -52.2963 N.am      3 UNK        -0.4139 
     60 C          33.4778  -48.9090  -51.6517 C.2       2 UNK         0.5016 
     61 O          32.6579  -48.1074  -51.2015 O.2       2 UNK        -0.5319 
     62 CA         34.9845  -48.6203  -51.4808 C.3       2 UNK         0.0286 
     63 CB         35.9113  -49.7820  -51.9099 C.3       2 UNK        -0.1963 
     64 N          35.3865  -47.3785  -52.1500 N.am      2 UNK        -0.4790 
     65 C          35.2292  -47.0746  -53.4486 C.2       1 UNK         0.5024 
     66 O          34.7121  -47.8304  -54.2726 O.2       1 UNK        -0.4888 
     67 H67        39.6275  -45.9060  -51.7130 H         1 UNK         0.0892 
     68 H68        40.0321  -44.7959  -53.0252 H         1 UNK         0.0892 
     69 H69        38.8577  -44.3204  -51.7975 H         1 UNK         0.0892 
     70 H70        36.7565  -44.4246  -52.5621 H         1 UNK         0.3107 
     71 H71        36.0019  -45.7737  -54.9535 H         1 UNK         0.0773 
     72 H72        33.6770  -45.0543  -54.3312 H         1 UNK         0.0680 
     73 H73        34.2547  -44.5481  -52.7605 H         1 UNK         0.0680 
     74 H74        33.7500  -40.9910  -54.0875 H         1 UNK         0.0650 
     75 H75        33.9106  -41.9418  -52.6324 H         1 UNK         0.0650 
     76 H76        32.1472  -43.4371  -51.9595 H         1 UNK         0.1397 
     77 H77        28.7247  -43.9890  -54.4939 H         1 UNK         0.1363 
     78 H78        32.0947  -41.7605  -55.9027 H         1 UNK         0.1355 
     79 H79        28.5613  -42.2939  -56.4194 H         1 UNK         0.0707 
     80 H80        30.0444  -41.7526  -57.1735 H         1 UNK         0.0707 
     81 H81        28.8674  -42.4845  -59.3531 H         1 UNK         0.1034 
     82 H82        28.8380  -44.1228  -59.9416 H         1 UNK         0.1034 
     83 H83        26.7933  -42.7895  -58.1079 H         1 UNK         0.0482 
     84 H84        25.0855  -43.9366  -61.6116 H         1 UNK         0.3460 
     85 H85        25.5709  -45.1178  -60.4179 H         1 UNK         0.3460 
     86 H86        27.3820  -45.5462  -58.1645 H         1 UNK         0.2989 
     87 H87        25.5303  -46.4828  -56.0319 H         1 UNK         0.0559 
     88 H88        23.5509  -47.1653  -58.2670 H         1 UNK         0.0848 
     89 H89        23.1644  -46.4812  -56.6964 H         1 UNK         0.0848 
     90 H90        23.7924  -48.1160  -56.8003 H         1 UNK         0.0848 
     91 H91        27.0343  -47.7794  -56.9808 H         1 UNK         0.3144 
     92 H92        27.3840  -49.3829  -60.1211 H         1 UNK         0.0727 
     93 H93        29.1829  -47.3190  -58.7326 H         1 UNK         0.0790 
     94 H94        28.6372  -47.2502  -60.4030 H         1 UNK         0.0790 
     95 H95        29.7108  -48.5402  -59.8871 H         1 UNK         0.0790 
     96 H96        28.2893  -49.2419  -57.2590 H         1 UNK         0.3215 
     97 H97        27.9534  -52.7961  -56.9723 H         1 UNK         0.0863 
     98 H98        30.2255  -52.5347  -56.0146 H         1 UNK         0.0808 
     99 H99        30.3974  -50.9564  -56.7774 H         1 UNK         0.0808 
    100 H100       30.2842  -52.4057  -57.7655 H         1 UNK         0.0808 
    101 H101       28.6202  -50.8408  -55.0241 H         1 UNK         0.3118 
    102 H102       25.2947  -50.4575  -53.7427 H         1 UNK         0.0546 
    103 H103       26.1911  -52.6201  -52.9147 H         1 UNK         0.0828 
    104 H104       26.5041  -51.3339  -51.7610 H         1 UNK         0.0828 
    105 H105       27.8052  -51.9344  -52.7864 H         1 UNK         0.0828 
    106 H106       28.1322  -49.5287  -53.4954 H         1 UNK         0.3005 
    107 H107       27.2092  -46.2281  -54.1731 H         1 UNK         0.1257 
    108 H108       28.1773  -46.9699  -51.3650 H         1 UNK         0.0775 
    109 H109       26.5177  -46.5217  -51.6188 H         1 UNK         0.0775 
    110 H110       30.0258  -44.1895  -50.9920 H         1 UNK         0.0840 
    111 H111       30.1225  -45.6189  -51.9807 H         1 UNK         0.0840 
    112 H112       29.6550  -47.2704  -53.1534 H         1 UNK         0.2987 
    113 H113       30.9014  -48.6684  -56.1685 H         1 UNK         0.0785 
    114 H114       31.6289  -46.0632  -54.7379 H         1 UNK         0.0798 
    115 H115       31.2385  -46.2167  -56.4423 H         1 UNK         0.0798 
    116 H116       32.6849  -46.9816  -55.8175 H         1 UNK         0.0798 
    117 H117       32.3698  -48.4428  -53.8865 H         1 UNK         0.3079 
    118 H118       31.2359  -50.3924  -51.5372 H         1 UNK         0.0794 
    119 H119       32.3599  -52.2821  -53.6731 H         1 UNK         0.0786 
    120 H120       30.8591  -52.5036  -52.7858 H         1 UNK         0.0786 
    121 H121       32.3884  -52.5731  -51.9330 H         1 UNK         0.0786 
    122 H122       33.8832  -50.6019  -52.6720 H         1 UNK         0.3032 
    123 H123       35.1343  -48.4609  -50.4115 H         1 UNK         0.1094 
    124 H124       36.9531  -49.5463  -51.6917 H         1 UNK         0.0794 
    125 H125       35.6762  -50.6992  -51.3677 H         1 UNK         0.0794 
    126 H126       35.8450  -49.9956  -52.9774 H         1 UNK         0.0794 
    127 H127       35.7946  -46.6730  -51.5528 H         1 UNK         0.3016 
@<TRIPOS>BOND
     1    1    2 1    
     2    1   67 1    
     3    1   68 1    
     4    1   69 1    
     5    2    3 2    
     6    2    4 am   BACKBONE|DICT|INTERRES
     7    4    5 1    
     8    4   70 1    
     9    5    6 1    
    10    5   65 1    
    11    5   71 1    
    12    6    7 1    
    13    6   72 1    
    14    6   73 1    
    15    7    8 1    
    16    8    9 1    
    17    8   74 1    
    18    8   75 1    
    19    9   10 ar   
    20    9   14 ar   
    21   10   11 ar   
    22   10   76 1    
    23   11   12 ar   
    24   11   48 1    
    25   12   13 ar   
    26   12   77 1    
    27   13   14 ar   
    28   13   15 1    
    29   14   78 1    
    30   15   16 1    
    31   15   79 1    
    32   15   80 1    
    33   16   17 1    
    34   17   18 1    
    35   17   81 1    
    36   17   82 1    
    37   18   19 1    
    38   18   22 1    
    39   18   83 1    
    40   19   20 am   BACKBONE|DICT|INTERRES
    41   19   21 2    
    42   20   84 1    
    43   20   85 1    
    44   22   23 am   BACKBONE|DICT|INTERRES
    45   22   86 1    
    46   23   24 2    
    47   23   25 1    
    48   25   26 1    
    49   25   27 1    
    50   25   87 1    
    51   26   88 1    
    52   26   89 1    
    53   26   90 1    
    54   27   28 am   BACKBONE|DICT|INTERRES
    55   27   91 1    
    56   28   29 2    
    57   28   30 1    
    58   30   31 1    
    59   30   32 1    
    60   30   92 1    
    61   31   93 1    
    62   31   94 1    
    63   31   95 1    
    64   32   33 am   BACKBONE|DICT|INTERRES
    65   32   96 1    
    66   33   34 2    
    67   33   35 1    
    68   35   36 1    
    69   35   37 1    
    70   35   97 1    
    71   36   98 1    
    72   36   99 1    
    73   36  100 1    
    74   37   38 am   BACKBONE|DICT|INTERRES
    75   37  101 1    
    76   38   39 2    
    77   38   40 1    
    78   40   41 1    
    79   40   42 1    
    80   40  102 1    
    81   41  103 1    
    82   41  104 1    
    83   41  105 1    
    84   42   43 am   BACKBONE|DICT|INTERRES
    85   42  106 1    
    86   43   44 2    
    87   43   45 1    
    88   45   46 1    
    89   45   49 1    
    90   45  107 1    
    91   46   47 1    
    92   46  108 1    
    93   46  109 1    
    94   47   48 1    
    95   48  110 1    
    96   48  111 1    
    97   49   50 am   BACKBONE|DICT|INTERRES
    98   49  112 1    
    99   50   51 2    
   100   50   52 1    
   101   52   53 1    
   102   52   54 1    
   103   52  113 1    
   104   53  114 1    
   105   53  115 1    
   106   53  116 1    
   107   54   55 am   BACKBONE|DICT|INTERRES
   108   54  117 1    
   109   55   56 2    
   110   55   57 1    
   111   57   58 1    
   112   57   59 1    
   113   57  118 1    
   114   58  119 1    
   115   58  120 1    
   116   58  121 1    
   117   59   60 am   BACKBONE|DICT|INTERRES
   118   59  122 1    
   119   60   61 2    
   120   60   62 1    
   121   62   63 1    
   122   62   64 1    
   123   62  123 1    
   124   63  124 1    
   125   63  125 1    
   126   63  126 1    
   127   64   65 am   BACKBONE|DICT|INTERRES
   128   64  127 1    
   129   65   66 2    
@<TRIPOS>SUBSTRUCTURE
     1 UNK         1 GROUP             0       ****    0 ROOT    
