@<TRIPOS>MOLECULE
3R134
127   129    1
SMALL
USER_CHARGES


@<TRIPOS>ATOM
      1 CA         38.7008  -43.1617  -49.7624 C.3       0 UNK        -0.1968 
      2 C          38.3111  -43.6015  -51.1665 C.2       0 UNK         0.4852 
      3 O          39.1684  -44.0634  -51.9221 O.2       0 UNK        -0.5359 
      4 N          37.0289  -43.4528  -51.5220 N.am      1 UNK        -0.4300 
      5 CA         36.4541  -43.8865  -52.7987 C.3       1 UNK         0.0863 
      6 C6         35.1849  -43.0705  -53.1559 C.3       11 UNK        -0.0953 
      7 S7         33.8273  -43.1918  -51.9392 S.3       11 UNK        -0.2369 
      8 C8         32.4672  -42.4115  -52.8643 C.3       11 UNK         0.0226 
      9 C9         31.5784  -43.4451  -53.5412 C.ar      11 UNK        -0.0699 
     10 C10        30.3523  -43.7948  -52.9677 C.ar      11 UNK        -0.0804 
     11 C11        29.5215  -44.7319  -53.5871 C.ar      11 UNK        -0.0871 
     12 C12        29.9427  -45.3497  -54.7675 C.ar      11 UNK        -0.1008 
     13 C13        31.1521  -44.9867  -55.3720 C.ar      11 UNK        -0.0735 
     14 C14        31.9626  -44.0319  -54.7509 C.ar      11 UNK        -0.0945 
     15 C15        31.6088  -45.6091  -56.6898 C.3       11 UNK         0.0169 
     16 S16        30.2613  -45.9339  -57.8754 S.3       11 UNK        -0.2669 
     17 C17        29.6050  -44.2572  -58.1976 C.3       11 UNK        -0.0850 
     18 CA         28.2384  -43.9995  -57.5077 C.3       10 UNK         0.0855 
     19 C          27.7250  -42.5653  -57.7998 C.2       10 UNK         0.5543 
     20 N          28.1730  -41.5822  -57.0310 N.am      10 UNK        -0.7343 
     21 O          26.9621  -42.3283  -58.7348 O.2       10 UNK        -0.5027 
     22 N          27.2575  -45.0304  -57.8629 N.am      10 UNK        -0.4495 
     23 C          26.1500  -45.3280  -57.1802 C.2       10 UNK         0.4903 
     24 O          25.8322  -44.7836  -56.1227 O.2       10 UNK        -0.4860 
     25 CA         25.2523  -46.4458  -57.7457 C.3       9 UNK         0.0227 
     26 CB         24.2273  -45.8772  -58.7471 C.3       9 UNK        -0.1964 
     27 N          25.9791  -47.6034  -58.3005 N.am      9 UNK        -0.4231 
     28 C          26.7425  -47.6619  -59.4039 C.2       9 UNK         0.5014 
     29 O          26.9429  -46.6953  -60.1413 O.2       9 UNK        -0.5270 
     30 CA         27.4157  -48.9998  -59.7515 C.3       8 UNK         0.0284 
     31 CB         28.9331  -48.8235  -59.9437 C.3       8 UNK        -0.1977 
     32 N          27.2048  -50.0378  -58.7393 N.am      8 UNK        -0.4342 
     33 C          26.6070  -51.2142  -58.9685 C.2       8 UNK         0.5039 
     34 O          26.0152  -51.4960  -60.0125 O.2       8 UNK        -0.5547 
     35 CA         26.7121  -52.2731  -57.8635 C.3       7 UNK         0.0281 
     36 CB         28.1271  -52.8779  -57.8345 C.3       7 UNK        -0.1963 
     37 N          26.3954  -51.7302  -56.5420 N.am      7 UNK        -0.4444 
     38 C          25.2459  -51.9507  -55.8893 C.2       7 UNK         0.5104 
     39 O          24.2933  -52.5681  -56.3675 O.2       7 UNK        -0.5100 
     40 CA         25.1402  -51.4320  -54.4428 C.3       6 UNK         0.0396 
     41 CB         25.3224  -52.5902  -53.4484 C.3       6 UNK        -0.1801 
     42 N          26.1068  -50.3786  -54.1248 N.am      6 UNK        -0.4747 
     43 C          25.9840  -49.1019  -54.5109 C.2       6 UNK         0.5012 
     44 O          25.0410  -48.6798  -55.1778 O.2       6 UNK        -0.5003 
     45 CA         27.1202  -48.1459  -54.1034 C.3       5 UNK         0.0782 
     46 C46        26.8317  -47.5324  -52.7070 C.3       11 UNK        -0.0868 
     47 S47        28.2204  -46.5737  -52.0075 S.3       11 UNK        -0.2515 
     48 C48        28.1570  -45.0550  -52.9999 C.3       11 UNK         0.0199 
     49 N          28.4492  -48.7612  -54.1767 N.am      5 UNK        -0.4607 
     50 C          29.0341  -49.2705  -55.2664 C.2       4 UNK         0.5031 
     51 O          28.4368  -49.4535  -56.3288 O.2       4 UNK        -0.5119 
     52 CA         30.5335  -49.6175  -55.1521 C.3       4 UNK         0.0263 
     53 CB         31.1970  -49.7872  -56.5317 C.3       4 UNK        -0.1967 
     54 N          31.2904  -48.6175  -54.3881 N.am      4 UNK        -0.4237 
     55 C          31.3340  -48.5146  -53.0523 C.2       3 UNK         0.4908 
     56 O          30.7074  -49.2643  -52.3016 O.2       3 UNK        -0.5102 
     57 CA         32.1856  -47.3674  -52.4686 C.3       3 UNK         0.0241 
     58 CB         32.5213  -47.5711  -50.9767 C.3       3 UNK        -0.1971 
     59 N          33.4065  -47.0793  -53.2336 N.am      3 UNK        -0.4139 
     60 C          34.4071  -47.9296  -53.5152 C.2       2 UNK         0.5016 
     61 O          34.4154  -49.1212  -53.2047 O.2       2 UNK        -0.5319 
     62 CA         35.6139  -47.3532  -54.2789 C.3       2 UNK         0.0286 
     63 CB         35.4386  -47.5689  -55.7917 C.3       2 UNK        -0.1963 
     64 N          35.8740  -45.9309  -54.0220 N.am      2 UNK        -0.4790 
     65 C          36.2092  -45.4125  -52.8303 C.2       1 UNK         0.5024 
     66 O          36.3140  -46.0855  -51.8012 O.2       1 UNK        -0.4888 
     67 H67        39.0994  -44.0072  -49.2022 H         1 UNK         0.0892 
     68 H68        39.4693  -42.3907  -49.8100 H         1 UNK         0.0892 
     69 H69        37.8513  -42.7598  -49.2104 H         1 UNK         0.0892 
     70 H70        36.3608  -43.1020  -50.8503 H         1 UNK         0.3107 
     71 H71        37.1930  -43.6806  -53.5765 H         1 UNK         0.0773 
     72 H72        34.8168  -43.3571  -54.1403 H         1 UNK         0.0680 
     73 H73        35.4520  -42.0162  -53.2463 H         1 UNK         0.0680 
     74 H74        32.8629  -41.7138  -53.6040 H         1 UNK         0.0650 
     75 H75        31.8800  -41.8096  -52.1691 H         1 UNK         0.0650 
     76 H76        30.0384  -43.3278  -52.0441 H         1 UNK         0.1397 
     77 H77        29.3053  -46.0861  -55.2364 H         1 UNK         0.1363 
     78 H78        32.8936  -43.7412  -55.2149 H         1 UNK         0.1355 
     79 H79        32.3453  -44.9698  -57.1793 H         1 UNK         0.0707 
     80 H80        32.1148  -46.5499  -56.4756 H         1 UNK         0.0707 
     81 H81        30.3400  -43.5163  -57.8776 H         1 UNK         0.1034 
     82 H82        29.5099  -44.1382  -59.2786 H         1 UNK         0.1034 
     83 H83        28.3845  -44.0598  -56.4303 H         1 UNK         0.0482 
     84 H84        27.8648  -40.6396  -57.2116 H         1 UNK         0.3460 
     85 H85        28.8045  -41.7648  -56.2666 H         1 UNK         0.3460 
     86 H86        27.4040  -45.5097  -58.7465 H         1 UNK         0.2989 
     87 H87        24.6800  -46.8348  -56.9042 H         1 UNK         0.0559 
     88 H88        23.6136  -45.1081  -58.2764 H         1 UNK         0.0848 
     89 H89        23.5528  -46.6530  -59.1093 H         1 UNK         0.0848 
     90 H90        24.7075  -45.4179  -59.6116 H         1 UNK         0.0848 
     91 H91        25.9007  -48.4513  -57.7558 H         1 UNK         0.3144 
     92 H92        26.9924  -49.3068  -60.7099 H         1 UNK         0.0727 
     93 H93        29.3955  -49.7463  -60.2943 H         1 UNK         0.0790 
     94 H94        29.1577  -48.0508  -60.6802 H         1 UNK         0.0790 
     95 H95        29.4224  -48.5410  -59.0115 H         1 UNK         0.0790 
     96 H96        27.6712  -49.8807  -57.8437 H         1 UNK         0.3215 
     97 H97        26.0184  -53.0788  -58.1161 H         1 UNK         0.0863 
     98 H98        28.1940  -53.6916  -57.1118 H         1 UNK         0.0808 
     99 H99        28.8827  -52.1361  -57.5730 H         1 UNK         0.0808 
    100 H100       28.3963  -53.2887  -58.8089 H         1 UNK         0.0808 
    101 H101       27.1013  -51.1570  -56.0981 H         1 UNK         0.3118 
    102 H102       24.1327  -51.0309  -54.3119 H         1 UNK         0.0546 
    103 H103       26.3142  -53.0375  -53.5249 H         1 UNK         0.0828 
    104 H104       24.5940  -53.3814  -53.6326 H         1 UNK         0.0828 
    105 H105       25.1810  -52.2574  -52.4200 H         1 UNK         0.0828 
    106 H106       26.9181  -50.6428  -53.5834 H         1 UNK         0.3005 
    107 H107       27.1155  -47.3366  -54.8365 H         1 UNK         0.1257 
    108 H108       26.6032  -48.3199  -51.9857 H         1 UNK         0.0775 
    109 H109       25.9462  -46.8947  -52.7449 H         1 UNK         0.0775 
    110 H110       27.4276  -45.1464  -53.8058 H         1 UNK         0.0840 
    111 H111       27.8057  -44.2356  -52.3709 H         1 UNK         0.0840 
    112 H112       29.0112  -48.6927  -53.3350 H         1 UNK         0.2987 
    113 H113       30.5979  -50.5747  -54.6307 H         1 UNK         0.0785 
    114 H114       30.7199  -50.5829  -57.1044 H         1 UNK         0.0798 
    115 H115       32.2508  -50.0499  -56.4363 H         1 UNK         0.0798 
    116 H116       31.1300  -48.8755  -57.1261 H         1 UNK         0.0798 
    117 H117       31.8083  -47.9409  -54.9269 H         1 UNK         0.3079 
    118 H118       31.5671  -46.4727  -52.5379 H         1 UNK         0.0794 
    119 H119       33.0990  -48.4814  -50.8138 H         1 UNK         0.0786 
    120 H120       31.6129  -47.6475  -50.3777 H         1 UNK         0.0786 
    121 H121       33.0972  -46.7328  -50.5841 H         1 UNK         0.0786 
    122 H122       33.5147  -46.1207  -53.5337 H         1 UNK         0.3032 
    123 H123       36.4934  -47.9134  -53.9525 H         1 UNK         0.1094 
    124 H124       34.6026  -46.9932  -56.1901 H         1 UNK         0.0794 
    125 H125       36.3360  -47.2815  -56.3402 H         1 UNK         0.0794 
    126 H126       35.2481  -48.6193  -56.0177 H         1 UNK         0.0794 
    127 H127       35.8271  -45.3155  -54.8218 H         1 UNK         0.3016 
@<TRIPOS>BOND
     1    1    2 1    
     2    1   67 1    
     3    1   68 1    
     4    1   69 1    
     5    2    3 2    
     6    2    4 am   BACKBONE|DICT|INTERRES
     7    4    5 1    
     8    4   70 1    
     9    5    6 1    
    10    5   65 1    
    11    5   71 1    
    12    6    7 1    
    13    6   72 1    
    14    6   73 1    
    15    7    8 1    
    16    8    9 1    
    17    8   74 1    
    18    8   75 1    
    19    9   10 ar   
    20    9   14 ar   
    21   10   11 ar   
    22   10   76 1    
    23   11   12 ar   
    24   11   48 1    
    25   12   13 ar   
    26   12   77 1    
    27   13   14 ar   
    28   13   15 1    
    29   14   78 1    
    30   15   16 1    
    31   15   79 1    
    32   15   80 1    
    33   16   17 1    
    34   17   18 1    
    35   17   81 1    
    36   17   82 1    
    37   18   19 1    
    38   18   22 1    
    39   18   83 1    
    40   19   20 am   BACKBONE|DICT|INTERRES
    41   19   21 2    
    42   20   84 1    
    43   20   85 1    
    44   22   23 am   BACKBONE|DICT|INTERRES
    45   22   86 1    
    46   23   24 2    
    47   23   25 1    
    48   25   26 1    
    49   25   27 1    
    50   25   87 1    
    51   26   88 1    
    52   26   89 1    
    53   26   90 1    
    54   27   28 am   BACKBONE|DICT|INTERRES
    55   27   91 1    
    56   28   29 2    
    57   28   30 1    
    58   30   31 1    
    59   30   32 1    
    60   30   92 1    
    61   31   93 1    
    62   31   94 1    
    63   31   95 1    
    64   32   33 am   BACKBONE|DICT|INTERRES
    65   32   96 1    
    66   33   34 2    
    67   33   35 1    
    68   35   36 1    
    69   35   37 1    
    70   35   97 1    
    71   36   98 1    
    72   36   99 1    
    73   36  100 1    
    74   37   38 am   BACKBONE|DICT|INTERRES
    75   37  101 1    
    76   38   39 2    
    77   38   40 1    
    78   40   41 1    
    79   40   42 1    
    80   40  102 1    
    81   41  103 1    
    82   41  104 1    
    83   41  105 1    
    84   42   43 am   BACKBONE|DICT|INTERRES
    85   42  106 1    
    86   43   44 2    
    87   43   45 1    
    88   45   46 1    
    89   45   49 1    
    90   45  107 1    
    91   46   47 1    
    92   46  108 1    
    93   46  109 1    
    94   47   48 1    
    95   48  110 1    
    96   48  111 1    
    97   49   50 am   BACKBONE|DICT|INTERRES
    98   49  112 1    
    99   50   51 2    
   100   50   52 1    
   101   52   53 1    
   102   52   54 1    
   103   52  113 1    
   104   53  114 1    
   105   53  115 1    
   106   53  116 1    
   107   54   55 am   BACKBONE|DICT|INTERRES
   108   54  117 1    
   109   55   56 2    
   110   55   57 1    
   111   57   58 1    
   112   57   59 1    
   113   57  118 1    
   114   58  119 1    
   115   58  120 1    
   116   58  121 1    
   117   59   60 am   BACKBONE|DICT|INTERRES
   118   59  122 1    
   119   60   61 2    
   120   60   62 1    
   121   62   63 1    
   122   62   64 1    
   123   62  123 1    
   124   63  124 1    
   125   63  125 1    
   126   63  126 1    
   127   64   65 am   BACKBONE|DICT|INTERRES
   128   64  127 1    
   129   65   66 2    
@<TRIPOS>SUBSTRUCTURE
     1 UNK         1 GROUP             0       ****    0 ROOT    
