@<TRIPOS>MOLECULE
3R134
127   129    1
SMALL
USER_CHARGES


@<TRIPOS>ATOM
      1 CA         37.9226  -43.2151  -54.9319 C.3       0 UNK        -0.1968 
      2 C          36.9096  -44.0956  -54.2146 C.2       0 UNK         0.4852 
      3 O          36.9942  -44.2441  -52.9948 O.2       0 UNK        -0.5359 
      4 N          35.9621  -44.6725  -54.9688 N.am      1 UNK        -0.4300 
      5 CA         34.8837  -45.5601  -54.5086 C.3       1 UNK         0.0863 
      6 C6         33.8181  -44.8563  -53.6228 C.3       11 UNK        -0.0953 
      7 S7         33.0033  -43.4787  -54.4993 S.3       11 UNK        -0.2369 
      8 C8         31.6364  -44.3546  -55.3347 C.3       11 UNK         0.0226 
      9 C9         30.2965  -44.3073  -54.6012 C.ar      11 UNK        -0.0699 
     10 C10        30.2035  -44.3332  -53.2037 C.ar      11 UNK        -0.0804 
     11 C11        28.9555  -44.3185  -52.5724 C.ar      11 UNK        -0.0871 
     12 C12        27.7918  -44.2705  -53.3453 C.ar      11 UNK        -0.1008 
     13 C13        27.8678  -44.2692  -54.7390 C.ar      11 UNK        -0.0735 
     14 C14        29.1205  -44.2848  -55.3570 C.ar      11 UNK        -0.0945 
     15 C15        26.5961  -44.3140  -55.5727 C.3       11 UNK         0.0169 
     16 S16        25.8724  -42.6672  -55.8564 S.3       11 UNK        -0.2669 
     17 C17        27.0310  -41.9013  -57.0448 C.3       11 UNK        -0.0850 
     18 CA         26.5399  -41.9849  -58.5219 C.3       10 UNK         0.0855 
     19 C          27.3151  -41.0176  -59.4715 C.2       10 UNK         0.5543 
     20 N          27.4962  -41.3477  -60.7446 N.am      10 UNK        -0.7343 
     21 O          27.7289  -39.9351  -59.0629 O.2       10 UNK        -0.5027 
     22 N          26.4222  -43.3723  -59.0163 N.am      10 UNK        -0.4495 
     23 C          27.4322  -44.2355  -59.1880 C.2       10 UNK         0.4903 
     24 O          28.6158  -43.9748  -58.9617 O.2       10 UNK        -0.4860 
     25 CA         27.0563  -45.6209  -59.7321 C.3       9 UNK         0.0227 
     26 CB         27.1554  -45.6364  -61.2665 C.3       9 UNK        -0.1964 
     27 N          27.9622  -46.6310  -59.1834 N.am      9 UNK        -0.4231 
     28 C          27.7214  -47.3538  -58.0834 C.2       9 UNK         0.5014 
     29 O          26.6638  -47.3135  -57.4505 O.2       9 UNK        -0.5270 
     30 CA         28.8817  -48.2386  -57.5928 C.3       8 UNK         0.0284 
     31 CB         29.8201  -47.4350  -56.6781 C.3       8 UNK        -0.1977 
     32 N          28.4157  -49.4125  -56.8567 N.am      8 UNK        -0.4342 
     33 C          27.7485  -50.4469  -57.3831 C.2       8 UNK         0.5039 
     34 O          27.4857  -50.5583  -58.5818 O.2       8 UNK        -0.5547 
     35 CA         27.3142  -51.5538  -56.4114 C.3       7 UNK         0.0281 
     36 CB         28.4866  -52.5100  -56.1299 C.3       7 UNK        -0.1963 
     37 N          26.8286  -51.0012  -55.1446 N.am      7 UNK        -0.4444 
     38 C          25.5379  -50.8293  -54.8282 C.2       7 UNK         0.5104 
     39 O          24.6064  -51.1141  -55.5820 O.2       7 UNK        -0.5100 
     40 CA         25.2131  -50.2820  -53.4237 C.3       6 UNK         0.0396 
     41 CB         24.7754  -51.4281  -52.4971 C.3       6 UNK        -0.1801 
     42 N          26.3343  -49.5739  -52.8014 N.am      6 UNK        -0.4747 
     43 C          26.6680  -48.3006  -53.0580 C.2       6 UNK         0.5012 
     44 O          26.0105  -47.5599  -53.7879 O.2       6 UNK        -0.5003 
     45 CA         27.9579  -47.7627  -52.3988 C.3       5 UNK         0.0782 
     46 C46        27.6126  -46.9275  -51.1397 C.3       11 UNK        -0.0868 
     47 S47        29.0747  -46.0851  -50.4403 S.3       11 UNK        -0.2515 
     48 C48        28.8632  -44.3824  -51.0553 C.3       11 UNK         0.0199 
     49 N          28.9557  -48.8016  -52.1001 N.am      5 UNK        -0.4607 
     50 C          29.5264  -49.6118  -52.9983 C.2       4 UNK         0.5031 
     51 O          29.1953  -49.6597  -54.1840 O.2       4 UNK        -0.5119 
     52 CA         30.5914  -50.5834  -52.4669 C.3       4 UNK         0.0263 
     53 CB         29.9220  -51.8790  -51.9793 C.3       4 UNK        -0.1967 
     54 N          31.5951  -50.9197  -53.4802 N.am      4 UNK        -0.4237 
     55 C          32.4388  -50.0438  -54.0412 C.2       3 UNK         0.4908 
     56 O          32.4773  -48.8431  -53.7607 O.2       3 UNK        -0.5102 
     57 CA         33.3820  -50.6038  -55.1178 C.3       3 UNK         0.0241 
     58 CB         32.7176  -50.5375  -56.5037 C.3       3 UNK        -0.1971 
     59 N          34.6281  -49.8383  -55.1446 N.am      3 UNK        -0.4139 
     60 C          35.6400  -49.9961  -54.2797 C.2       2 UNK         0.5016 
     61 O          35.7166  -50.9229  -53.4716 O.2       2 UNK        -0.5319 
     62 CA         36.7444  -48.9222  -54.3081 C.3       2 UNK         0.0286 
     63 CB         37.8646  -49.3191  -55.2831 C.3       2 UNK        -0.1963 
     64 N          36.2298  -47.5956  -54.6681 N.am      2 UNK        -0.4790 
     65 C          35.4430  -46.8516  -53.8747 C.2       1 UNK         0.5024 
     66 O          35.1733  -47.1500  -52.7096 O.2       1 UNK        -0.4888 
     67 H67        38.9296  -43.6038  -54.7829 H         1 UNK         0.0892 
     68 H68        37.7345  -43.1640  -56.0042 H         1 UNK         0.0892 
     69 H69        37.8861  -42.2014  -54.5337 H         1 UNK         0.0892 
     70 H70        35.9646  -44.4910  -55.9629 H         1 UNK         0.3107 
     71 H71        34.3697  -45.8911  -55.4125 H         1 UNK         0.0773 
     72 H72        33.0546  -45.5684  -53.3031 H         1 UNK         0.0680 
     73 H73        34.2698  -44.4660  -52.7095 H         1 UNK         0.0680 
     74 H74        31.9090  -45.3968  -55.5048 H         1 UNK         0.0650 
     75 H75        31.5253  -43.9059  -56.3231 H         1 UNK         0.0650 
     76 H76        31.0982  -44.3790  -52.5994 H         1 UNK         0.1397 
     77 H77        26.8224  -44.2664  -52.8659 H         1 UNK         0.1363 
     78 H78        29.1804  -44.3012  -56.4360 H         1 UNK         0.1355 
     79 H79        25.8562  -44.9362  -55.0666 H         1 UNK         0.0707 
     80 H80        26.7848  -44.8041  -56.5252 H         1 UNK         0.0707 
     81 H81        27.1282  -40.8588  -56.7370 H         1 UNK         0.1034 
     82 H82        28.0293  -42.3232  -56.9418 H         1 UNK         0.1034 
     83 H83        25.5212  -41.5956  -58.5356 H         1 UNK         0.0482 
     84 H84        27.9871  -40.7132  -61.3548 H         1 UNK         0.3460 
     85 H85        27.1527  -42.2258  -61.0977 H         1 UNK         0.3460 
     86 H86        25.4850  -43.6689  -59.2481 H         1 UNK         0.2989 
     87 H87        26.0264  -45.8504  -59.4495 H         1 UNK         0.0559 
     88 H88        26.4664  -44.9171  -61.7111 H         1 UNK         0.0848 
     89 H89        26.9007  -46.6168  -61.6697 H         1 UNK         0.0848 
     90 H90        28.1588  -45.3828  -61.6116 H         1 UNK         0.0848 
     91 H91        28.8820  -46.6718  -59.5991 H         1 UNK         0.3144 
     92 H92        29.4474  -48.5883  -58.4589 H         1 UNK         0.0727 
     93 H93        29.3002  -47.0869  -55.7845 H         1 UNK         0.0790 
     94 H94        30.2187  -46.5595  -57.1919 H         1 UNK         0.0790 
     95 H95        30.6686  -48.0340  -56.3485 H         1 UNK         0.0790 
     96 H96        28.6167  -49.4248  -55.8582 H         1 UNK         0.3215 
     97 H97        26.5219  -52.1294  -56.8951 H         1 UNK         0.0863 
     98 H98        28.1795  -53.3321  -55.4834 H         1 UNK         0.0808 
     99 H99        29.3223  -52.0004  -55.6488 H         1 UNK         0.0808 
    100 H100       28.8619  -52.9484  -57.0555 H         1 UNK         0.0808 
    101 H101       27.5364  -50.6603  -54.5035 H         1 UNK         0.3118 
    102 H102       24.3724  -49.5923  -53.5260 H         1 UNK         0.0546 
    103 H103       25.5720  -52.1590  -52.3522 H         1 UNK         0.0828 
    104 H104       23.9182  -51.9600  -52.9125 H         1 UNK         0.0828 
    105 H105       24.4777  -51.0552  -51.5170 H         1 UNK         0.0828 
    106 H106       26.9206  -50.1042  -52.1731 H         1 UNK         0.3005 
    107 H107       28.4135  -47.0988  -53.1372 H         1 UNK         0.1257 
    108 H108       27.1896  -47.5690  -50.3644 H         1 UNK         0.0775 
    109 H109       26.8447  -46.1839  -51.3593 H         1 UNK         0.0775 
    110 H110       27.9090  -43.9837  -50.7069 H         1 UNK         0.0840 
    111 H111       29.6348  -43.7488  -50.6155 H         1 UNK         0.0840 
    112 H112       29.2789  -48.8287  -51.1436 H         1 UNK         0.2987 
    113 H113       31.1080  -50.1111  -51.6286 H         1 UNK         0.0785 
    114 H114       29.1930  -51.6745  -51.1940 H         1 UNK         0.0798 
    115 H115       30.6537  -52.5719  -51.5632 H         1 UNK         0.0798 
    116 H116       29.3961  -52.3910  -52.7867 H         1 UNK         0.0798 
    117 H117       31.6109  -51.8785  -53.7952 H         1 UNK         0.3079 
    118 H118       33.6082  -51.6469  -54.8857 H         1 UNK         0.0794 
    119 H119       31.7687  -51.0758  -56.5124 H         1 UNK         0.0786 
    120 H120       33.3518  -50.9875  -57.2677 H         1 UNK         0.0786 
    121 H121       32.5107  -49.5101  -56.8044 H         1 UNK         0.0786 
    122 H122       34.6401  -49.0229  -55.7379 H         1 UNK         0.3032 
    123 H123       37.1694  -48.8639  -53.3031 H         1 UNK         0.1094 
    124 H124       38.6855  -48.6021  -55.2574 H         1 UNK         0.0794 
    125 H125       38.2800  -50.2936  -55.0219 H         1 UNK         0.0794 
    126 H126       37.5052  -49.3834  -56.3109 H         1 UNK         0.0794 
    127 H127       36.4459  -47.2571  -55.5952 H         1 UNK         0.3016 
@<TRIPOS>BOND
     1    1    2 1    
     2    1   67 1    
     3    1   68 1    
     4    1   69 1    
     5    2    3 2    
     6    2    4 am   BACKBONE|DICT|INTERRES
     7    4    5 1    
     8    4   70 1    
     9    5    6 1    
    10    5   65 1    
    11    5   71 1    
    12    6    7 1    
    13    6   72 1    
    14    6   73 1    
    15    7    8 1    
    16    8    9 1    
    17    8   74 1    
    18    8   75 1    
    19    9   10 ar   
    20    9   14 ar   
    21   10   11 ar   
    22   10   76 1    
    23   11   12 ar   
    24   11   48 1    
    25   12   13 ar   
    26   12   77 1    
    27   13   14 ar   
    28   13   15 1    
    29   14   78 1    
    30   15   16 1    
    31   15   79 1    
    32   15   80 1    
    33   16   17 1    
    34   17   18 1    
    35   17   81 1    
    36   17   82 1    
    37   18   19 1    
    38   18   22 1    
    39   18   83 1    
    40   19   20 am   BACKBONE|DICT|INTERRES
    41   19   21 2    
    42   20   84 1    
    43   20   85 1    
    44   22   23 am   BACKBONE|DICT|INTERRES
    45   22   86 1    
    46   23   24 2    
    47   23   25 1    
    48   25   26 1    
    49   25   27 1    
    50   25   87 1    
    51   26   88 1    
    52   26   89 1    
    53   26   90 1    
    54   27   28 am   BACKBONE|DICT|INTERRES
    55   27   91 1    
    56   28   29 2    
    57   28   30 1    
    58   30   31 1    
    59   30   32 1    
    60   30   92 1    
    61   31   93 1    
    62   31   94 1    
    63   31   95 1    
    64   32   33 am   BACKBONE|DICT|INTERRES
    65   32   96 1    
    66   33   34 2    
    67   33   35 1    
    68   35   36 1    
    69   35   37 1    
    70   35   97 1    
    71   36   98 1    
    72   36   99 1    
    73   36  100 1    
    74   37   38 am   BACKBONE|DICT|INTERRES
    75   37  101 1    
    76   38   39 2    
    77   38   40 1    
    78   40   41 1    
    79   40   42 1    
    80   40  102 1    
    81   41  103 1    
    82   41  104 1    
    83   41  105 1    
    84   42   43 am   BACKBONE|DICT|INTERRES
    85   42  106 1    
    86   43   44 2    
    87   43   45 1    
    88   45   46 1    
    89   45   49 1    
    90   45  107 1    
    91   46   47 1    
    92   46  108 1    
    93   46  109 1    
    94   47   48 1    
    95   48  110 1    
    96   48  111 1    
    97   49   50 am   BACKBONE|DICT|INTERRES
    98   49  112 1    
    99   50   51 2    
   100   50   52 1    
   101   52   53 1    
   102   52   54 1    
   103   52  113 1    
   104   53  114 1    
   105   53  115 1    
   106   53  116 1    
   107   54   55 am   BACKBONE|DICT|INTERRES
   108   54  117 1    
   109   55   56 2    
   110   55   57 1    
   111   57   58 1    
   112   57   59 1    
   113   57  118 1    
   114   58  119 1    
   115   58  120 1    
   116   58  121 1    
   117   59   60 am   BACKBONE|DICT|INTERRES
   118   59  122 1    
   119   60   61 2    
   120   60   62 1    
   121   62   63 1    
   122   62   64 1    
   123   62  123 1    
   124   63  124 1    
   125   63  125 1    
   126   63  126 1    
   127   64   65 am   BACKBONE|DICT|INTERRES
   128   64  127 1    
   129   65   66 2    
@<TRIPOS>SUBSTRUCTURE
     1 UNK         1 GROUP             0       ****    0 ROOT    
