@<TRIPOS>MOLECULE
3R134
127   129    1
SMALL
USER_CHARGES


@<TRIPOS>ATOM
      1 CA         32.0267  -43.6778  -49.7582 C.3       0 UNK        -0.1968 
      2 C          33.0509  -44.6740  -50.2798 C.2       0 UNK         0.4852 
      3 O          33.6375  -45.4216  -49.4949 O.2       0 UNK        -0.5359 
      4 N          33.2708  -44.6932  -51.6010 N.am      1 UNK        -0.4300 
      5 CA         34.2152  -45.5723  -52.2979 C.3       1 UNK         0.0863 
      6 C6         34.7062  -44.9807  -53.6537 C.3       11 UNK        -0.0953 
      7 S7         35.1069  -43.1974  -53.5646 S.3       11 UNK        -0.2369 
      8 C8         34.2299  -42.4890  -55.0071 C.3       11 UNK         0.0226 
      9 C9         32.7905  -42.9714  -55.1849 C.ar      11 UNK        -0.0699 
     10 C10        31.8783  -42.9491  -54.1232 C.ar      11 UNK        -0.0804 
     11 C11        30.5760  -43.4369  -54.2870 C.ar      11 UNK        -0.0871 
     12 C12        30.1704  -43.8817  -55.5498 C.ar      11 UNK        -0.1008 
     13 C13        31.0607  -43.8810  -56.6254 C.ar      11 UNK        -0.0735 
     14 C14        32.3724  -43.4414  -56.4339 C.ar      11 UNK        -0.0945 
     15 C15        30.5926  -44.3296  -57.9987 C.3       11 UNK         0.0169 
     16 S16        30.0154  -42.8957  -58.9577 S.3       11 UNK        -0.2669 
     17 C17        28.7546  -43.6440  -60.0416 C.3       11 UNK        -0.0850 
     18 CA         27.3207  -43.3889  -59.5094 C.3       10 UNK         0.0855 
     19 C          26.2614  -43.7560  -60.5837 C.2       10 UNK         0.5543 
     20 N          25.8855  -42.8080  -61.4307 N.am      10 UNK        -0.7343 
     21 O          25.8127  -44.8962  -60.6832 O.2       10 UNK        -0.5027 
     22 N          27.0915  -44.1015  -58.2464 N.am      10 UNK        -0.4495 
     23 C          26.0745  -43.8915  -57.4059 C.2       10 UNK         0.4903 
     24 O          25.2563  -42.9786  -57.5304 O.2       10 UNK        -0.4860 
     25 CA         25.9425  -44.9055  -56.2523 C.3       9 UNK         0.0227 
     26 CB         24.8499  -44.5198  -55.2385 C.3       9 UNK        -0.1964 
     27 N          25.6691  -46.2508  -56.7667 N.am      9 UNK        -0.4231 
     28 C          26.5873  -47.0674  -57.2975 C.2       9 UNK         0.5014 
     29 O          27.7832  -46.7820  -57.3851 O.2       9 UNK        -0.5270 
     30 CA         26.0832  -48.3872  -57.8845 C.3       8 UNK         0.0284 
     31 CB         26.0405  -48.3141  -59.4227 C.3       8 UNK        -0.1977 
     32 N          26.9594  -49.4690  -57.4450 N.am      8 UNK        -0.4342 
     33 C          26.6252  -50.7659  -57.4377 C.2       8 UNK         0.5039 
     34 O          25.5572  -51.2026  -57.8700 O.2       8 UNK        -0.5547 
     35 CA         27.6287  -51.7407  -56.8055 C.3       7 UNK         0.0281 
     36 CB         28.8249  -52.0037  -57.7364 C.3       7 UNK        -0.1963 
     37 N          28.0893  -51.2383  -55.5106 N.am      7 UNK        -0.4444 
     38 C          27.4026  -51.3768  -54.3667 C.2       7 UNK         0.5104 
     39 O          26.3583  -52.0230  -54.2716 O.2       7 UNK        -0.5100 
     40 CA         27.9643  -50.6901  -53.1085 C.3       6 UNK         0.0396 
     41 CB         28.7153  -51.7094  -52.2381 C.3       6 UNK        -0.1801 
     42 N          28.8374  -49.5510  -53.4123 N.am      6 UNK        -0.4747 
     43 C          28.3816  -48.3632  -53.8438 C.2       6 UNK         0.5012 
     44 O          27.1836  -48.1090  -53.9734 O.2       6 UNK        -0.5003 
     45 CA         29.4235  -47.2912  -54.2308 C.3       5 UNK         0.0782 
     46 C46        29.7311  -46.3260  -53.0527 C.3       11 UNK        -0.0868 
     47 S47        28.5462  -44.9359  -52.9945 S.3       11 UNK        -0.2515 
     48 C48        29.6173  -43.4548  -53.0970 C.3       11 UNK         0.0199 
     49 N          30.6467  -47.8382  -54.8274 N.am      5 UNK        -0.4607 
     50 C          30.7035  -48.5530  -55.9602 C.2       4 UNK         0.5031 
     51 O          29.7136  -48.9813  -56.5506 O.2       4 UNK        -0.5119 
     52 CA         32.0994  -48.8544  -56.5192 C.3       4 UNK         0.0263 
     53 CB         32.7325  -47.5801  -57.1042 C.3       4 UNK        -0.1967 
     54 N          32.9598  -49.3934  -55.4692 N.am      4 UNK        -0.4237 
     55 C          33.2145  -50.6951  -55.2817 C.2       3 UNK         0.4908 
     56 O          32.8501  -51.5854  -56.0508 O.2       3 UNK        -0.5102 
     57 CA         33.9986  -51.0811  -54.0110 C.3       3 UNK         0.0241 
     58 CB         35.5027  -51.1714  -54.3155 C.3       3 UNK        -0.1971 
     59 N          33.7892  -50.1770  -52.8740 N.am      3 UNK        -0.4139 
     60 C          32.6036  -49.9276  -52.3004 C.2       2 UNK         0.5016 
     61 O          31.5456  -50.4418  -52.6582 O.2       2 UNK        -0.5319 
     62 CA         32.5724  -48.8789  -51.1773 C.3       2 UNK         0.0286 
     63 CB         32.8954  -49.5334  -49.8251 C.3       2 UNK        -0.1963 
     64 N          33.4278  -47.6975  -51.3625 N.am      2 UNK        -0.4790 
     65 C          33.5492  -46.9509  -52.4702 C.2       1 UNK         0.5024 
     66 O          33.0871  -47.2723  -53.5652 O.2       1 UNK        -0.4888 
     67 H67        31.0664  -44.1701  -49.6068 H         1 UNK         0.0892 
     68 H68        32.3533  -43.2663  -48.8034 H         1 UNK         0.0892 
     69 H69        31.8858  -42.8459  -50.4475 H         1 UNK         0.0892 
     70 H70        32.7534  -44.0733  -52.2041 H         1 UNK         0.3107 
     71 H71        35.0959  -45.7035  -51.6653 H         1 UNK         0.0773 
     72 H72        33.9745  -45.1367  -54.4456 H         1 UNK         0.0680 
     73 H73        35.6007  -45.5117  -53.9829 H         1 UNK         0.0680 
     74 H74        34.8184  -42.7168  -55.8972 H         1 UNK         0.0650 
     75 H75        34.2265  -41.4024  -54.9140 H         1 UNK         0.0650 
     76 H76        32.1915  -42.5539  -53.1675 H         1 UNK         0.1397 
     77 H77        29.1573  -44.2249  -55.7013 H         1 UNK         0.1363 
     78 H78        33.0611  -43.4470  -57.2677 H         1 UNK         0.1355 
     79 H79        31.4021  -44.8238  -58.5376 H         1 UNK         0.0707 
     80 H80        29.7965  -45.0671  -57.8937 H         1 UNK         0.0707 
     81 H81        28.8791  -43.1984  -61.0306 H         1 UNK         0.1034 
     82 H82        28.9443  -44.7117  -60.1684 H         1 UNK         0.1034 
     83 H83        27.2202  -42.3214  -59.3011 H         1 UNK         0.0482 
     84 H84        26.2542  -41.8718  -61.3641 H         1 UNK         0.3460 
     85 H85        25.2105  -43.0302  -62.1458 H         1 UNK         0.3460 
     86 H86        27.6516  -44.9329  -58.0899 H         1 UNK         0.2989 
     87 H87        26.8930  -44.9207  -55.7158 H         1 UNK         0.0559 
     88 H88        25.0402  -43.5307  -54.8195 H         1 UNK         0.0848 
     89 H89        24.8207  -45.2212  -54.4043 H         1 UNK         0.0848 
     90 H90        23.8598  -44.4965  -55.6953 H         1 UNK         0.0848 
     91 H91        24.7012  -46.5396  -56.7727 H         1 UNK         0.3144 
     92 H92        25.0764  -48.5781  -57.5065 H         1 UNK         0.0727 
     93 H93        27.0328  -48.1450  -59.8430 H         1 UNK         0.0790 
     94 H94        25.4017  -47.4955  -59.7562 H         1 UNK         0.0790 
     95 H95        25.6434  -49.2307  -59.8586 H         1 UNK         0.0790 
     96 H96        27.8700  -49.1766  -57.0891 H         1 UNK         0.3215 
     97 H97        27.1186  -52.6944  -56.6514 H         1 UNK         0.0863 
     98 H98        29.5368  -52.6932  -57.2822 H         1 UNK         0.0808 
     99 H99        29.3618  -51.0904  -57.9912 H         1 UNK         0.0808 
    100 H100       28.4918  -52.4521  -58.6732 H         1 UNK         0.0808 
    101 H101       28.8986  -50.6290  -55.5221 H         1 UNK         0.3118 
    102 H102       27.1153  -50.3224  -52.5282 H         1 UNK         0.0546 
    103 H103       29.5437  -52.1686  -52.7788 H         1 UNK         0.0828 
    104 H104       28.0510  -52.5142  -51.9208 H         1 UNK         0.0828 
    105 H105       29.1171  -51.2461  -51.3369 H         1 UNK         0.0828 
    106 H106       29.8380  -49.7074  -53.3161 H         1 UNK         0.3005 
    107 H107       28.9649  -46.7099  -55.0335 H         1 UNK         0.1257 
    108 H108       30.7338  -45.9109  -53.1535 H         1 UNK         0.0775 
    109 H109       29.7295  -46.8437  -52.0916 H         1 UNK         0.0775 
    110 H110       28.9815  -42.5702  -53.1512 H         1 UNK         0.0840 
    111 H111       30.1704  -43.3762  -52.1610 H         1 UNK         0.0840 
    112 H112       31.5213  -47.5574  -54.3914 H         1 UNK         0.2987 
    113 H113       31.9894  -49.5790  -57.3291 H         1 UNK         0.0785 
    114 H114       32.1084  -47.1681  -57.8980 H         1 UNK         0.0798 
    115 H115       33.7111  -47.7885  -57.5365 H         1 UNK         0.0798 
    116 H116       32.8596  -46.8004  -56.3516 H         1 UNK         0.0798 
    117 H117       33.2569  -48.7347  -54.7551 H         1 UNK         0.3079 
    118 H118       33.6504  -52.0705  -53.7068 H         1 UNK         0.0794 
    119 H119       35.6931  -51.8584  -55.1416 H         1 UNK         0.0786 
    120 H120       36.0614  -51.5406  -53.4552 H         1 UNK         0.0786 
    121 H121       35.9166  -50.2019  -54.5960 H         1 UNK         0.0786 
    122 H122       34.5985  -49.6870  -52.5213 H         1 UNK         0.3032 
    123 H123       31.5458  -48.5096  -51.1307 H         1 UNK         0.1094 
    124 H124       32.7312  -48.8405  -48.9995 H         1 UNK         0.0794 
    125 H125       32.2588  -50.4017  -49.6474 H         1 UNK         0.0794 
    126 H126       33.9311  -49.8721  -49.7781 H         1 UNK         0.0794 
    127 H127       33.7852  -47.2797  -50.5095 H         1 UNK         0.3016 
@<TRIPOS>BOND
     1    1    2 1    
     2    1   67 1    
     3    1   68 1    
     4    1   69 1    
     5    2    3 2    
     6    2    4 am   BACKBONE|DICT|INTERRES
     7    4    5 1    
     8    4   70 1    
     9    5    6 1    
    10    5   65 1    
    11    5   71 1    
    12    6    7 1    
    13    6   72 1    
    14    6   73 1    
    15    7    8 1    
    16    8    9 1    
    17    8   74 1    
    18    8   75 1    
    19    9   10 ar   
    20    9   14 ar   
    21   10   11 ar   
    22   10   76 1    
    23   11   12 ar   
    24   11   48 1    
    25   12   13 ar   
    26   12   77 1    
    27   13   14 ar   
    28   13   15 1    
    29   14   78 1    
    30   15   16 1    
    31   15   79 1    
    32   15   80 1    
    33   16   17 1    
    34   17   18 1    
    35   17   81 1    
    36   17   82 1    
    37   18   19 1    
    38   18   22 1    
    39   18   83 1    
    40   19   20 am   BACKBONE|DICT|INTERRES
    41   19   21 2    
    42   20   84 1    
    43   20   85 1    
    44   22   23 am   BACKBONE|DICT|INTERRES
    45   22   86 1    
    46   23   24 2    
    47   23   25 1    
    48   25   26 1    
    49   25   27 1    
    50   25   87 1    
    51   26   88 1    
    52   26   89 1    
    53   26   90 1    
    54   27   28 am   BACKBONE|DICT|INTERRES
    55   27   91 1    
    56   28   29 2    
    57   28   30 1    
    58   30   31 1    
    59   30   32 1    
    60   30   92 1    
    61   31   93 1    
    62   31   94 1    
    63   31   95 1    
    64   32   33 am   BACKBONE|DICT|INTERRES
    65   32   96 1    
    66   33   34 2    
    67   33   35 1    
    68   35   36 1    
    69   35   37 1    
    70   35   97 1    
    71   36   98 1    
    72   36   99 1    
    73   36  100 1    
    74   37   38 am   BACKBONE|DICT|INTERRES
    75   37  101 1    
    76   38   39 2    
    77   38   40 1    
    78   40   41 1    
    79   40   42 1    
    80   40  102 1    
    81   41  103 1    
    82   41  104 1    
    83   41  105 1    
    84   42   43 am   BACKBONE|DICT|INTERRES
    85   42  106 1    
    86   43   44 2    
    87   43   45 1    
    88   45   46 1    
    89   45   49 1    
    90   45  107 1    
    91   46   47 1    
    92   46  108 1    
    93   46  109 1    
    94   47   48 1    
    95   48  110 1    
    96   48  111 1    
    97   49   50 am   BACKBONE|DICT|INTERRES
    98   49  112 1    
    99   50   51 2    
   100   50   52 1    
   101   52   53 1    
   102   52   54 1    
   103   52  113 1    
   104   53  114 1    
   105   53  115 1    
   106   53  116 1    
   107   54   55 am   BACKBONE|DICT|INTERRES
   108   54  117 1    
   109   55   56 2    
   110   55   57 1    
   111   57   58 1    
   112   57   59 1    
   113   57  118 1    
   114   58  119 1    
   115   58  120 1    
   116   58  121 1    
   117   59   60 am   BACKBONE|DICT|INTERRES
   118   59  122 1    
   119   60   61 2    
   120   60   62 1    
   121   62   63 1    
   122   62   64 1    
   123   62  123 1    
   124   63  124 1    
   125   63  125 1    
   126   63  126 1    
   127   64   65 am   BACKBONE|DICT|INTERRES
   128   64  127 1    
   129   65   66 2    
@<TRIPOS>SUBSTRUCTURE
     1 UNK         1 GROUP             0       ****    0 ROOT    
