@<TRIPOS>MOLECULE
3R134
127   129    1
SMALL
USER_CHARGES


@<TRIPOS>ATOM
      1 CA         29.4412  -43.6558  -51.1249 C.3       0 UNK        -0.1968 
      2 C          30.4343  -44.4963  -50.3343 C.2       0 UNK         0.4852 
      3 O          30.1939  -44.7872  -49.1613 O.2       0 UNK        -0.5359 
      4 N          31.5488  -44.8766  -50.9697 N.am      1 UNK        -0.4300 
      5 CA         32.5896  -45.7502  -50.4216 C.3       1 UNK         0.0863 
      6 C6         33.9875  -45.3568  -50.9735 C.3       11 UNK        -0.0953 
      7 S7         34.1225  -45.5279  -52.7865 S.3       11 UNK        -0.2369 
      8 C8         34.1544  -43.7977  -53.3498 C.3       11 UNK         0.0226 
      9 C9         33.3002  -43.6094  -54.5943 C.ar      11 UNK        -0.0699 
     10 C10        33.6781  -44.1956  -55.8054 C.ar      11 UNK        -0.0804 
     11 C11        32.9002  -44.0237  -56.9550 C.ar      11 UNK        -0.0871 
     12 C12        31.7342  -43.2529  -56.8883 C.ar      11 UNK        -0.1008 
     13 C13        31.3590  -42.6429  -55.6860 C.ar      11 UNK        -0.0735 
     14 C14        32.1411  -42.8308  -54.5426 C.ar      11 UNK        -0.0945 
     15 C15        30.1384  -41.7384  -55.6174 C.3       11 UNK         0.0169 
     16 S16        28.6837  -42.6168  -54.9751 S.3       11 UNK        -0.2669 
     17 C17        27.9684  -43.2797  -56.5155 C.3       11 UNK        -0.0850 
     18 CA         26.5641  -43.9035  -56.2868 C.3       10 UNK         0.0855 
     19 C          25.4566  -42.8055  -56.2753 C.2       10 UNK         0.5543 
     20 N          24.7161  -42.6123  -57.3607 N.am      10 UNK        -0.7343 
     21 O          25.2595  -42.1296  -55.2689 O.2       10 UNK        -0.5027 
     22 N          26.3205  -45.0170  -57.2193 N.am      10 UNK        -0.4495 
     23 C          25.2771  -45.8548  -57.1561 C.2       10 UNK         0.4903 
     24 O          24.4258  -45.8326  -56.2668 O.2       10 UNK        -0.4860 
     25 CA         25.1417  -46.8866  -58.2807 C.3       9 UNK         0.0227 
     26 CB         25.7315  -46.4347  -59.6337 C.3       9 UNK        -0.1964 
     27 N          25.7486  -48.1449  -57.8585 N.am      9 UNK        -0.4231 
     28 C          25.2797  -49.3578  -58.1760 C.2       9 UNK         0.5014 
     29 O          24.2637  -49.5417  -58.8490 O.2       9 UNK        -0.5270 
     30 CA         26.0730  -50.5843  -57.6955 C.3       8 UNK         0.0284 
     31 CB         26.8249  -51.2225  -58.8759 C.3       8 UNK        -0.1977 
     32 N          27.0241  -50.2868  -56.6201 N.am      8 UNK        -0.4342 
     33 C          26.6960  -50.2350  -55.3219 C.2       8 UNK         0.5039 
     34 O          25.5479  -50.3851  -54.9012 O.2       8 UNK        -0.5547 
     35 CA         27.8360  -49.9905  -54.3190 C.3       7 UNK         0.0281 
     36 CB         28.6575  -51.2718  -54.1041 C.3       7 UNK        -0.1963 
     37 N          28.7287  -48.8984  -54.7067 N.am      7 UNK        -0.4444 
     38 C          28.3820  -47.6049  -54.7406 C.2       7 UNK         0.5104 
     39 O          27.2552  -47.1882  -54.4760 O.2       7 UNK        -0.5100 
     40 CA         29.4751  -46.6096  -55.1528 C.3       6 UNK         0.0396 
     41 CB         30.4004  -46.2774  -53.9765 C.3       6 UNK        -0.1801 
     42 N          30.2662  -47.1119  -56.2732 N.am      6 UNK        -0.4747 
     43 C          29.8760  -47.0554  -57.5529 C.2       6 UNK         0.5012 
     44 O          28.8401  -46.5050  -57.9269 O.2       6 UNK        -0.5003 
     45 CA         30.7686  -47.7572  -58.5959 C.3       5 UNK         0.0782 
     46 C46        31.7607  -46.7703  -59.2628 C.3       11 UNK        -0.0868 
     47 S47        33.2679  -46.4412  -58.2784 S.3       11 UNK        -0.2515 
     48 C48        33.3662  -44.6225  -58.2743 C.3       11 UNK         0.0199 
     49 N          31.4424  -48.9516  -58.0741 N.am      5 UNK        -0.4607 
     50 C          30.8279  -50.0649  -57.6571 C.2       4 UNK         0.5031 
     51 O          29.6104  -50.2268  -57.6907 O.2       4 UNK        -0.5119 
     52 CA         31.7164  -51.1620  -57.0477 C.3       4 UNK         0.0263 
     53 CB         32.2989  -52.0573  -58.1523 C.3       4 UNK        -0.1967 
     54 N          32.8013  -50.6445  -56.2056 N.am      4 UNK        -0.4237 
     55 C          32.6294  -49.8666  -55.1276 C.2       3 UNK         0.4908 
     56 O          31.5315  -49.4536  -54.7489 O.2       3 UNK        -0.5102 
     57 CA         33.9071  -49.4276  -54.3951 C.3       3 UNK         0.0241 
     58 CB         34.4958  -48.1836  -55.0801 C.3       3 UNK        -0.1971 
     59 N          33.6694  -49.1366  -52.9768 N.am      3 UNK        -0.4139 
     60 C          33.3224  -50.0501  -52.0565 C.2       2 UNK         0.5016 
     61 O          33.2008  -51.2506  -52.3077 O.2       2 UNK        -0.5319 
     62 CA         33.1099  -49.5766  -50.6029 C.3       2 UNK         0.0286 
     63 CB         34.1104  -50.2649  -49.6574 C.3       2 UNK        -0.1963 
     64 N          33.2260  -48.1254  -50.4232 N.am      2 UNK        -0.4790 
     65 C          32.2385  -47.2449  -50.6346 C.2       1 UNK         0.5024 
     66 O          31.1064  -47.5818  -50.9873 O.2       1 UNK        -0.4888 
     67 H67        29.8096  -43.4181  -52.1227 H         1 UNK         0.0892 
     68 H68        28.4983  -44.1913  -51.2322 H         1 UNK         0.0892 
     69 H69        29.2442  -42.7181  -50.6062 H         1 UNK         0.0892 
     70 H70        31.6747  -44.6346  -51.9411 H         1 UNK         0.3107 
     71 H71        32.6235  -45.6056  -49.3396 H         1 UNK         0.0773 
     72 H72        34.2170  -44.3309  -50.6827 H         1 UNK         0.0680 
     73 H73        34.7760  -45.9535  -50.5131 H         1 UNK         0.0680 
     74 H74        35.1848  -43.5122  -53.5653 H         1 UNK         0.0650 
     75 H75        33.8109  -43.1326  -52.5566 H         1 UNK         0.0650 
     76 H76        34.5818  -44.7881  -55.8530 H         1 UNK         0.1397 
     77 H77        31.1347  -43.1033  -57.7757 H         1 UNK         0.1363 
     78 H78        31.8496  -42.3567  -53.6154 H         1 UNK         0.1355 
     79 H79        29.9205  -41.3059  -56.5950 H         1 UNK         0.0707 
     80 H80        30.3508  -40.8946  -54.9591 H         1 UNK         0.0707 
     81 H81        27.9296  -42.4958  -57.2747 H         1 UNK         0.1034 
     82 H82        28.6686  -44.0190  -56.9041 H         1 UNK         0.1034 
     83 H83        26.5552  -44.3591  -55.2942 H         1 UNK         0.0482 
     84 H84        23.9964  -41.9068  -57.3487 H         1 UNK         0.3460 
     85 H85        24.8678  -43.1651  -58.1887 H         1 UNK         0.3460 
     86 H86        27.0177  -45.1682  -57.9364 H         1 UNK         0.2989 
     87 H87        24.0681  -47.0295  -58.4223 H         1 UNK         0.0559 
     88 H88        26.8198  -46.3816  -59.6167 H         1 UNK         0.0848 
     89 H89        25.3535  -45.4528  -59.9212 H         1 UNK         0.0848 
     90 H90        25.4535  -47.1276  -60.4280 H         1 UNK         0.0848 
     91 H91        26.5661  -48.0748  -57.2674 H         1 UNK         0.3144 
     92 H92        25.3494  -51.3160  -57.3294 H         1 UNK         0.0727 
     93 H93        27.5214  -50.5211  -59.3370 H         1 UNK         0.0790 
     94 H94        26.1300  -51.5462  -59.6519 H         1 UNK         0.0790 
     95 H95        27.3906  -52.0995  -58.5610 H         1 UNK         0.0790 
     96 H96        28.0013  -50.1833  -56.8967 H         1 UNK         0.3215 
     97 H97        27.3815  -49.7190  -53.3636 H         1 UNK         0.0863 
     98 H98        29.4341  -51.1244  -53.3528 H         1 UNK         0.0808 
     99 H99        29.1416  -51.5993  -55.0240 H         1 UNK         0.0808 
    100 H100       28.0225  -52.0893  -53.7602 H         1 UNK         0.0808 
    101 H101       29.7032  -49.1381  -54.8801 H         1 UNK         0.3118 
    102 H102       28.9810  -45.6859  -55.4480 H         1 UNK         0.0546 
    103 H103       29.8244  -45.9158  -53.1249 H         1 UNK         0.0828 
    104 H104       31.1132  -45.5004  -54.2477 H         1 UNK         0.0828 
    105 H105       30.9658  -47.1468  -53.6424 H         1 UNK         0.0828 
    106 H106       31.1046  -47.6282  -56.0430 H         1 UNK         0.3005 
    107 H107       30.0839  -48.1020  -59.3747 H         1 UNK         0.1257 
    108 H108       31.2592  -45.8356  -59.5209 H         1 UNK         0.0775 
    109 H109       32.0904  -47.1899  -60.2144 H         1 UNK         0.0775 
    110 H110       34.4066  -44.3370  -58.4362 H         1 UNK         0.0840 
    111 H111       32.8131  -44.2037  -59.1159 H         1 UNK         0.0840 
    112 H112       32.4468  -48.8870  -57.9935 H         1 UNK         0.2987 
    113 H113       31.0804  -51.7807  -56.4122 H         1 UNK         0.0785 
    114 H114       31.5061  -52.4670  -58.7801 H         1 UNK         0.0798 
    115 H115       32.8446  -52.9025  -57.7323 H         1 UNK         0.0798 
    116 H116       32.9791  -51.5075  -58.8040 H         1 UNK         0.0798 
    117 H117       33.7389  -50.9230  -56.4579 H         1 UNK         0.3079 
    118 H118       34.6370  -50.2381  -54.4493 H         1 UNK         0.0794 
    119 H119       33.7782  -47.3622  -55.1087 H         1 UNK         0.0786 
    120 H120       34.7783  -48.3984  -56.1114 H         1 UNK         0.0786 
    121 H121       35.3920  -47.8313  -54.5693 H         1 UNK         0.0786 
    122 H122       33.7224  -48.1686  -52.6951 H         1 UNK         0.3032 
    123 H123       32.1033  -49.8900  -50.3156 H         1 UNK         0.1094 
    124 H124       35.1415  -50.0085  -49.9039 H         1 UNK         0.0794 
    125 H125       33.9325  -49.9851  -48.6188 H         1 UNK         0.0794 
    126 H126       34.0227  -51.3509  -49.7151 H         1 UNK         0.0794 
    127 H127       34.1326  -47.7804  -50.1406 H         1 UNK         0.3016 
@<TRIPOS>BOND
     1    1    2 1    
     2    1   67 1    
     3    1   68 1    
     4    1   69 1    
     5    2    3 2    
     6    2    4 am   BACKBONE|DICT|INTERRES
     7    4    5 1    
     8    4   70 1    
     9    5    6 1    
    10    5   65 1    
    11    5   71 1    
    12    6    7 1    
    13    6   72 1    
    14    6   73 1    
    15    7    8 1    
    16    8    9 1    
    17    8   74 1    
    18    8   75 1    
    19    9   10 ar   
    20    9   14 ar   
    21   10   11 ar   
    22   10   76 1    
    23   11   12 ar   
    24   11   48 1    
    25   12   13 ar   
    26   12   77 1    
    27   13   14 ar   
    28   13   15 1    
    29   14   78 1    
    30   15   16 1    
    31   15   79 1    
    32   15   80 1    
    33   16   17 1    
    34   17   18 1    
    35   17   81 1    
    36   17   82 1    
    37   18   19 1    
    38   18   22 1    
    39   18   83 1    
    40   19   20 am   BACKBONE|DICT|INTERRES
    41   19   21 2    
    42   20   84 1    
    43   20   85 1    
    44   22   23 am   BACKBONE|DICT|INTERRES
    45   22   86 1    
    46   23   24 2    
    47   23   25 1    
    48   25   26 1    
    49   25   27 1    
    50   25   87 1    
    51   26   88 1    
    52   26   89 1    
    53   26   90 1    
    54   27   28 am   BACKBONE|DICT|INTERRES
    55   27   91 1    
    56   28   29 2    
    57   28   30 1    
    58   30   31 1    
    59   30   32 1    
    60   30   92 1    
    61   31   93 1    
    62   31   94 1    
    63   31   95 1    
    64   32   33 am   BACKBONE|DICT|INTERRES
    65   32   96 1    
    66   33   34 2    
    67   33   35 1    
    68   35   36 1    
    69   35   37 1    
    70   35   97 1    
    71   36   98 1    
    72   36   99 1    
    73   36  100 1    
    74   37   38 am   BACKBONE|DICT|INTERRES
    75   37  101 1    
    76   38   39 2    
    77   38   40 1    
    78   40   41 1    
    79   40   42 1    
    80   40  102 1    
    81   41  103 1    
    82   41  104 1    
    83   41  105 1    
    84   42   43 am   BACKBONE|DICT|INTERRES
    85   42  106 1    
    86   43   44 2    
    87   43   45 1    
    88   45   46 1    
    89   45   49 1    
    90   45  107 1    
    91   46   47 1    
    92   46  108 1    
    93   46  109 1    
    94   47   48 1    
    95   48  110 1    
    96   48  111 1    
    97   49   50 am   BACKBONE|DICT|INTERRES
    98   49  112 1    
    99   50   51 2    
   100   50   52 1    
   101   52   53 1    
   102   52   54 1    
   103   52  113 1    
   104   53  114 1    
   105   53  115 1    
   106   53  116 1    
   107   54   55 am   BACKBONE|DICT|INTERRES
   108   54  117 1    
   109   55   56 2    
   110   55   57 1    
   111   57   58 1    
   112   57   59 1    
   113   57  118 1    
   114   58  119 1    
   115   58  120 1    
   116   58  121 1    
   117   59   60 am   BACKBONE|DICT|INTERRES
   118   59  122 1    
   119   60   61 2    
   120   60   62 1    
   121   62   63 1    
   122   62   64 1    
   123   62  123 1    
   124   63  124 1    
   125   63  125 1    
   126   63  126 1    
   127   64   65 am   BACKBONE|DICT|INTERRES
   128   64  127 1    
   129   65   66 2    
@<TRIPOS>SUBSTRUCTURE
     1 UNK         1 GROUP             0       ****    0 ROOT    
