@<TRIPOS>MOLECULE
3R134
127   129    1
SMALL
USER_CHARGES


@<TRIPOS>ATOM
      1 CA         37.8724  -43.7287  -55.5940 C.3       0 UNK        -0.1968 
      2 C          37.0731  -45.0009  -55.8352 C.2       0 UNK         0.4852 
      3 O          37.5722  -45.9224  -56.4826 O.2       0 UNK        -0.5359 
      4 N          35.8369  -45.0560  -55.3209 N.am      1 UNK        -0.4300 
      5 CA         34.9194  -46.1964  -55.4598 C.3       1 UNK         0.0863 
      6 C6         33.4556  -45.8171  -55.1246 C.3       11 UNK        -0.0953 
      7 S7         32.8386  -44.4104  -56.1110 S.3       11 UNK        -0.2369 
      8 C8         32.5569  -43.1449  -54.8301 C.3       11 UNK         0.0226 
      9 C9         31.3536  -43.4820  -53.9615 C.ar      11 UNK        -0.0699 
     10 C10        31.5269  -44.0096  -52.6788 C.ar      11 UNK        -0.0804 
     11 C11        30.4207  -44.3540  -51.8963 C.ar      11 UNK        -0.0871 
     12 C12        29.1306  -44.1472  -52.3959 C.ar      11 UNK        -0.1008 
     13 C13        28.9470  -43.6141  -53.6757 C.ar      11 UNK        -0.0735 
     14 C14        30.0609  -43.2773  -54.4499 C.ar      11 UNK        -0.0945 
     15 C15        27.5510  -43.4355  -54.2473 C.3       11 UNK         0.0169 
     16 S16        27.1653  -44.8136  -55.3619 S.3       11 UNK        -0.2669 
     17 C17        25.4875  -44.3720  -55.9215 C.3       11 UNK        -0.0850 
     18 CA         25.0012  -45.3478  -57.0286 C.3       10 UNK         0.0855 
     19 C          23.4748  -45.2485  -57.3305 C.2       10 UNK         0.5543 
     20 N          23.0210  -45.6071  -58.5258 N.am      10 UNK        -0.7343 
     21 O          22.6858  -44.8788  -56.4645 O.2       10 UNK        -0.5027 
     22 N          25.8768  -45.3331  -58.2127 N.am      10 UNK        -0.4495 
     23 C          25.9691  -44.3656  -59.1363 C.2       10 UNK         0.4903 
     24 O          25.3354  -43.3107  -59.0927 O.2       10 UNK        -0.4860 
     25 CA         26.9241  -44.6090  -60.3234 C.3       9 UNK         0.0227 
     26 CB         28.1873  -43.7446  -60.1764 C.3       9 UNK        -0.1964 
     27 N          27.3241  -46.0104  -60.4882 N.am      9 UNK        -0.4231 
     28 C          26.5120  -47.0252  -60.8167 C.2       9 UNK         0.5014 
     29 O          25.3233  -46.8876  -61.1102 O.2       9 UNK        -0.5270 
     30 CA         27.1126  -48.4437  -60.7539 C.3       8 UNK         0.0284 
     31 CB         28.6340  -48.4849  -61.0265 C.3       8 UNK        -0.1977 
     32 N          26.7957  -49.1201  -59.4870 N.am      8 UNK        -0.4342 
     33 C          27.0665  -48.6832  -58.2482 C.2       8 UNK         0.5039 
     34 O          27.6389  -47.6187  -57.9997 O.2       8 UNK        -0.5547 
     35 CA         26.6281  -49.5825  -57.0879 C.3       7 UNK         0.0281 
     36 CB         27.6480  -50.7099  -56.8506 C.3       7 UNK        -0.1963 
     37 N          26.5364  -48.7605  -55.8856 N.am      7 UNK        -0.4444 
     38 C          25.6091  -48.8674  -54.9285 C.2       7 UNK         0.5104 
     39 O          24.7146  -49.7149  -54.9372 O.2       7 UNK        -0.5100 
     40 CA         25.6979  -47.8455  -53.7744 C.3       6 UNK         0.0396 
     41 CB         24.8611  -48.2514  -52.5426 C.3       6 UNK        -0.1801 
     42 N          27.0806  -47.5256  -53.3889 N.am      6 UNK        -0.4747 
     43 C          27.9980  -48.3847  -52.9202 C.2       6 UNK         0.5012 
     44 O          27.7790  -49.5810  -52.7119 O.2       6 UNK        -0.5003 
     45 CA         29.3905  -47.8083  -52.5995 C.3       5 UNK         0.0782 
     46 C46        29.4988  -47.4951  -51.0870 C.3       11 UNK        -0.0868 
     47 S47        31.0869  -46.7235  -50.6306 S.3       11 UNK        -0.2515 
     48 C48        30.6309  -44.9631  -50.5184 C.3       11 UNK         0.0199 
     49 N          30.4148  -48.7533  -53.0478 N.am      5 UNK        -0.4607 
     50 C          30.7575  -48.9417  -54.3260 C.2       4 UNK         0.5031 
     51 O          30.3348  -48.2382  -55.2439 O.2       4 UNK        -0.5119 
     52 CA         31.7089  -50.1163  -54.6349 C.3       4 UNK         0.0263 
     53 CB         32.2473  -50.0720  -56.0779 C.3       4 UNK        -0.1967 
     54 N          32.8354  -50.2270  -53.6981 N.am      4 UNK        -0.4237 
     55 C          32.7690  -50.7968  -52.4841 C.2       3 UNK         0.4908 
     56 O          31.7148  -51.1978  -51.9894 O.2       3 UNK        -0.5102 
     57 CA         34.0701  -50.9773  -51.6794 C.3       3 UNK         0.0241 
     58 CB         34.5034  -52.4530  -51.6925 C.3       3 UNK        -0.1971 
     59 N          35.1818  -50.1557  -52.1583 N.am      3 UNK        -0.4139 
     60 C          35.3429  -48.8570  -51.8781 C.2       2 UNK         0.5016 
     61 O          34.5797  -48.2112  -51.1595 O.2       2 UNK        -0.5319 
     62 CA         36.5449  -48.1387  -52.5211 C.3       2 UNK         0.0286 
     63 CB         37.6116  -49.0847  -53.1209 C.3       2 UNK        -0.1963 
     64 N          36.0966  -47.1635  -53.5208 N.am      2 UNK        -0.4790 
     65 C          35.3479  -47.4106  -54.6087 C.2       1 UNK         0.5024 
     66 O          34.9785  -48.5383  -54.9403 O.2       1 UNK        -0.4888 
     67 H67        38.1433  -43.2706  -56.5449 H         1 UNK         0.0892 
     68 H68        37.3109  -42.9968  -55.0135 H         1 UNK         0.0892 
     69 H69        38.7899  -43.9591  -55.0529 H         1 UNK         0.0892 
     70 H70        35.4716  -44.2587  -54.8211 H         1 UNK         0.3107 
     71 H71        34.9488  -46.5182  -56.5032 H         1 UNK         0.0773 
     72 H72        32.7916  -46.6619  -55.3180 H         1 UNK         0.0680 
     73 H73        33.3549  -45.5980  -54.0614 H         1 UNK         0.0680 
     74 H74        32.3916  -42.1831  -55.3178 H         1 UNK         0.0650 
     75 H75        33.4559  -43.0286  -54.2232 H         1 UNK         0.0650 
     76 H76        32.5237  -44.1744  -52.2930 H         1 UNK         0.1397 
     77 H77        28.2711  -44.4165  -51.7973 H         1 UNK         0.1363 
     78 H78        29.9211  -42.8819  -55.4469 H         1 UNK         0.1355 
     79 H79        26.8082  -43.3890  -53.4493 H         1 UNK         0.0707 
     80 H80        27.4885  -42.4926  -54.7929 H         1 UNK         0.0707 
     81 H81        24.8270  -44.4023  -55.0531 H         1 UNK         0.1034 
     82 H82        25.4777  -43.3427  -56.2837 H         1 UNK         0.1034 
     83 H83        25.1063  -46.3545  -56.6262 H         1 UNK         0.0482 
     84 H84        23.6603  -45.9170  -59.2427 H         1 UNK         0.3460 
     85 H85        22.0330  -45.5535  -58.7171 H         1 UNK         0.3460 
     86 H86        26.4956  -46.1358  -58.2982 H         1 UNK         0.2989 
     87 H87        26.4005  -44.3025  -61.2310 H         1 UNK         0.0559 
     88 H88        27.9299  -42.6878  -60.0917 H         1 UNK         0.0848 
     89 H89        28.7568  -44.0122  -59.2850 H         1 UNK         0.0848 
     90 H90        28.8440  -43.8471  -61.0405 H         1 UNK         0.0848 
     91 H91        28.2615  -46.2475  -60.1951 H         1 UNK         0.3144 
     92 H92        26.6246  -49.0160  -61.5446 H         1 UNK         0.0727 
     93 H93        28.9809  -49.5130  -61.1307 H         1 UNK         0.0790 
     94 H94        29.2165  -48.0261  -60.2269 H         1 UNK         0.0790 
     95 H95        28.8815  -47.9695  -61.9557 H         1 UNK         0.0790 
     96 H96        26.2940  -49.9929  -59.5819 H         1 UNK         0.3215 
     97 H97        25.6514  -50.0085  -57.3280 H         1 UNK         0.0863 
     98 H98        27.7400  -51.3512  -57.7280 H         1 UNK         0.0808 
     99 H99        28.6397  -50.3122  -56.6292 H         1 UNK         0.0808 
    100 H100       27.3496  -51.3432  -56.0149 H         1 UNK         0.0808 
    101 H101       27.2072  -48.0011  -55.8520 H         1 UNK         0.3118 
    102 H102       25.2690  -46.9205  -54.1603 H         1 UNK         0.0546 
    103 H103       23.8063  -48.3485  -52.8022 H         1 UNK         0.0828 
    104 H104       24.9304  -47.5049  -51.7516 H         1 UNK         0.0828 
    105 H105       25.1814  -49.2087  -52.1304 H         1 UNK         0.0828 
    106 H106       27.3601  -46.5685  -53.5646 H         1 UNK         0.3005 
    107 H107       29.5223  -46.8795  -53.1598 H         1 UNK         0.1257 
    108 H108       29.3936  -48.4104  -50.5010 H         1 UNK         0.0775 
    109 H109       28.6836  -46.8425  -50.7690 H         1 UNK         0.0775 
    110 H110       29.7417  -44.8465  -49.8968 H         1 UNK         0.0840 
    111 H111       31.4298  -44.4263  -50.0045 H         1 UNK         0.0840 
    112 H112       30.7589  -49.4133  -52.3604 H         1 UNK         0.2987 
    113 H113       31.1072  -51.0238  -54.5494 H         1 UNK         0.0785 
    114 H114       31.4320  -50.1307  -56.8003 H         1 UNK         0.0798 
    115 H115       32.9178  -50.9071  -56.2805 H         1 UNK         0.0798 
    116 H116       32.7894  -49.1478  -56.2787 H         1 UNK         0.0798 
    117 H117       33.7195  -49.8442  -54.0185 H         1 UNK         0.3079 
    118 H118       33.8511  -50.6990  -50.6460 H         1 UNK         0.0794 
    119 H119       33.7118  -53.0966  -51.3057 H         1 UNK         0.0786 
    120 H120       35.3823  -52.6144  -51.0679 H         1 UNK         0.0786 
    121 H121       34.7387  -52.7967  -52.7007 H         1 UNK         0.0786 
    122 H122       35.8452  -50.5982  -52.7781 H         1 UNK         0.3032 
    123 H123       37.0216  -47.5731  -51.7184 H         1 UNK         0.1094 
    124 H124       38.4737  -48.5192  -53.4750 H         1 UNK         0.0794 
    125 H125       37.9803  -49.7881  -52.3729 H         1 UNK         0.0794 
    126 H126       37.2349  -49.6622  -53.9656 H         1 UNK         0.0794 
    127 H127       36.3241  -46.1994  -53.3229 H         1 UNK         0.3016 
@<TRIPOS>BOND
     1    1    2 1    
     2    1   67 1    
     3    1   68 1    
     4    1   69 1    
     5    2    3 2    
     6    2    4 am   BACKBONE|DICT|INTERRES
     7    4    5 1    
     8    4   70 1    
     9    5    6 1    
    10    5   65 1    
    11    5   71 1    
    12    6    7 1    
    13    6   72 1    
    14    6   73 1    
    15    7    8 1    
    16    8    9 1    
    17    8   74 1    
    18    8   75 1    
    19    9   10 ar   
    20    9   14 ar   
    21   10   11 ar   
    22   10   76 1    
    23   11   12 ar   
    24   11   48 1    
    25   12   13 ar   
    26   12   77 1    
    27   13   14 ar   
    28   13   15 1    
    29   14   78 1    
    30   15   16 1    
    31   15   79 1    
    32   15   80 1    
    33   16   17 1    
    34   17   18 1    
    35   17   81 1    
    36   17   82 1    
    37   18   19 1    
    38   18   22 1    
    39   18   83 1    
    40   19   20 am   BACKBONE|DICT|INTERRES
    41   19   21 2    
    42   20   84 1    
    43   20   85 1    
    44   22   23 am   BACKBONE|DICT|INTERRES
    45   22   86 1    
    46   23   24 2    
    47   23   25 1    
    48   25   26 1    
    49   25   27 1    
    50   25   87 1    
    51   26   88 1    
    52   26   89 1    
    53   26   90 1    
    54   27   28 am   BACKBONE|DICT|INTERRES
    55   27   91 1    
    56   28   29 2    
    57   28   30 1    
    58   30   31 1    
    59   30   32 1    
    60   30   92 1    
    61   31   93 1    
    62   31   94 1    
    63   31   95 1    
    64   32   33 am   BACKBONE|DICT|INTERRES
    65   32   96 1    
    66   33   34 2    
    67   33   35 1    
    68   35   36 1    
    69   35   37 1    
    70   35   97 1    
    71   36   98 1    
    72   36   99 1    
    73   36  100 1    
    74   37   38 am   BACKBONE|DICT|INTERRES
    75   37  101 1    
    76   38   39 2    
    77   38   40 1    
    78   40   41 1    
    79   40   42 1    
    80   40  102 1    
    81   41  103 1    
    82   41  104 1    
    83   41  105 1    
    84   42   43 am   BACKBONE|DICT|INTERRES
    85   42  106 1    
    86   43   44 2    
    87   43   45 1    
    88   45   46 1    
    89   45   49 1    
    90   45  107 1    
    91   46   47 1    
    92   46  108 1    
    93   46  109 1    
    94   47   48 1    
    95   48  110 1    
    96   48  111 1    
    97   49   50 am   BACKBONE|DICT|INTERRES
    98   49  112 1    
    99   50   51 2    
   100   50   52 1    
   101   52   53 1    
   102   52   54 1    
   103   52  113 1    
   104   53  114 1    
   105   53  115 1    
   106   53  116 1    
   107   54   55 am   BACKBONE|DICT|INTERRES
   108   54  117 1    
   109   55   56 2    
   110   55   57 1    
   111   57   58 1    
   112   57   59 1    
   113   57  118 1    
   114   58  119 1    
   115   58  120 1    
   116   58  121 1    
   117   59   60 am   BACKBONE|DICT|INTERRES
   118   59  122 1    
   119   60   61 2    
   120   60   62 1    
   121   62   63 1    
   122   62   64 1    
   123   62  123 1    
   124   63  124 1    
   125   63  125 1    
   126   63  126 1    
   127   64   65 am   BACKBONE|DICT|INTERRES
   128   64  127 1    
   129   65   66 2    
@<TRIPOS>SUBSTRUCTURE
     1 UNK         1 GROUP             0       ****    0 ROOT    
