@<TRIPOS>MOLECULE
3R134
127   129    1
SMALL
USER_CHARGES


@<TRIPOS>ATOM
      1 CA         37.6862  -47.9575  -52.2999 C.3       0 UNK        -0.1968 
      2 C          36.4066  -47.7330  -53.0909 C.2       0 UNK         0.4852 
      3 O          35.7090  -48.6973  -53.4114 O.2       0 UNK        -0.5359 
      4 N          36.0798  -46.4669  -53.3923 N.am      1 UNK        -0.4300 
      5 CA         34.8999  -46.0566  -54.1681 C.3       1 UNK         0.0863 
      6 C6         34.9234  -44.5487  -54.5204 C.3       11 UNK        -0.0953 
      7 S7         34.8298  -43.4528  -53.0622 S.3       11 UNK        -0.2369 
      8 C8         34.0948  -41.9492  -53.7806 C.3       11 UNK         0.0226 
      9 C9         32.6527  -42.1200  -54.2536 C.ar      11 UNK        -0.0699 
     10 C10        31.6609  -42.5973  -53.3889 C.ar      11 UNK        -0.0804 
     11 C11        30.3232  -42.6531  -53.7985 C.ar      11 UNK        -0.0871 
     12 C12        29.9815  -42.2147  -55.0829 C.ar      11 UNK        -0.1008 
     13 C13        30.9640  -41.7578  -55.9665 C.ar      11 UNK        -0.0735 
     14 C14        32.2973  -41.7210  -55.5460 C.ar      11 UNK        -0.0945 
     15 C15        30.5895  -41.2418  -57.3516 C.3       11 UNK         0.0169 
     16 S16        30.0413  -42.5658  -58.4798 S.3       11 UNK        -0.2669 
     17 C17        28.2304  -42.5620  -58.2376 C.3       11 UNK        -0.0850 
     18 CA         27.6790  -43.8754  -57.6203 C.3       10 UNK         0.0855 
     19 C          26.2235  -43.6753  -57.1309 C.2       10 UNK         0.5543 
     20 N          25.9946  -43.6183  -55.8282 N.am      10 UNK        -0.7343 
     21 O          25.3008  -43.5408  -57.9325 O.2       10 UNK        -0.5027 
     22 N          27.6667  -44.9878  -58.5737 N.am      10 UNK        -0.4495 
     23 C          28.5923  -45.9413  -58.7025 C.2       10 UNK         0.4903 
     24 O          29.6832  -45.9390  -58.1335 O.2       10 UNK        -0.4860 
     25 CA         28.1626  -47.1487  -59.5487 C.3       9 UNK         0.0227 
     26 CB         29.3454  -48.0054  -60.0339 C.3       9 UNK        -0.1964 
     27 N          27.2769  -47.9633  -58.7178 N.am      9 UNK        -0.4231 
     28 C          25.9425  -47.8466  -58.6884 C.2       9 UNK         0.5014 
     29 O          25.3122  -47.1518  -59.4877 O.2       9 UNK        -0.5270 
     30 CA         25.1805  -48.5486  -57.5478 C.3       8 UNK         0.0284 
     31 CB         23.7984  -49.0796  -57.9867 C.3       8 UNK        -0.1977 
     32 N          25.9559  -49.5678  -56.8311 N.am      8 UNK        -0.4342 
     33 C          26.3237  -50.7863  -57.2577 C.2       8 UNK         0.5039 
     34 O          26.0534  -51.2271  -58.3757 O.2       8 UNK        -0.5547 
     35 CA         27.1297  -51.6735  -56.2838 C.3       7 UNK         0.0281 
     36 CB         28.3859  -52.2519  -56.9601 C.3       7 UNK        -0.1963 
     37 N          27.5286  -50.9704  -55.0608 N.am      7 UNK        -0.4444 
     38 C          26.7760  -50.8411  -53.9602 C.2       7 UNK         0.5104 
     39 O          25.6742  -51.3721  -53.8206 O.2       7 UNK        -0.5100 
     40 CA         27.3219  -49.9361  -52.8386 C.3       6 UNK         0.0396 
     41 CB         28.0761  -50.7762  -51.7967 C.3       6 UNK        -0.1801 
     42 N          28.1935  -48.8556  -53.3152 N.am      6 UNK        -0.4747 
     43 C          27.8147  -47.8584  -54.1308 C.2       6 UNK         0.5012 
     44 O          26.6664  -47.7280  -54.5560 O.2       6 UNK        -0.5003 
     45 CA         28.9234  -46.9057  -54.6273 C.3       5 UNK         0.0782 
     46 C46        29.3182  -45.8566  -53.5571 C.3       11 UNK        -0.0868 
     47 S47        28.1773  -44.4412  -53.5080 S.3       11 UNK        -0.2515 
     48 C48        29.2440  -43.1256  -52.8281 C.3       11 UNK         0.0199 
     49 N          30.0950  -47.6392  -55.1104 N.am      5 UNK        -0.4607 
     50 C          30.0990  -48.5591  -56.0839 C.2       4 UNK         0.5031 
     51 O          29.0971  -48.8984  -56.7117 O.2       4 UNK        -0.5119 
     52 CA         31.4352  -49.2677  -56.3541 C.3       4 UNK         0.0263 
     53 CB         32.3676  -48.3982  -57.2141 C.3       4 UNK        -0.1967 
     54 N          32.1067  -49.6309  -55.1050 N.am      4 UNK        -0.4237 
     55 C          31.6720  -50.5779  -54.2608 C.2       3 UNK         0.4908 
     56 O          30.7098  -51.3110  -54.4882 O.2       3 UNK        -0.5102 
     57 CA         32.4128  -50.6988  -52.9189 C.3       3 UNK         0.0241 
     58 CB         33.6775  -51.5588  -53.0684 C.3       3 UNK        -0.1971 
     59 N          32.7641  -49.3913  -52.3576 N.am      3 UNK        -0.4139 
     60 C          31.8645  -48.5140  -51.8849 C.2       2 UNK         0.5016 
     61 O          30.6556  -48.7360  -51.8352 O.2       2 UNK        -0.5319 
     62 CA         32.3849  -47.1381  -51.4321 C.3       2 UNK         0.0286 
     63 CB         32.7426  -47.1626  -49.9384 C.3       2 UNK        -0.1963 
     64 N          33.5372  -46.6617  -52.1997 N.am      2 UNK        -0.4790 
     65 C          33.5576  -46.4686  -53.5275 C.2       1 UNK         0.5024 
     66 O          32.5801  -46.6442  -54.2509 O.2       1 UNK        -0.4888 
     67 H67        38.1965  -47.0213  -52.0744 H         1 UNK         0.0892 
     68 H68        37.4619  -48.4578  -51.3583 H         1 UNK         0.0892 
     69 H69        38.3699  -48.5887  -52.8668 H         1 UNK         0.0892 
     70 H70        36.6777  -45.7122  -53.0856 H         1 UNK         0.3107 
     71 H71        34.9554  -46.6034  -55.1120 H         1 UNK         0.0773 
     72 H72        34.1016  -44.3170  -55.2008 H         1 UNK         0.0680 
     73 H73        35.8352  -44.3090  -55.0693 H         1 UNK         0.0680 
     74 H74        34.1179  -41.1613  -53.0269 H         1 UNK         0.0650 
     75 H75        34.7349  -41.6090  -54.5962 H         1 UNK         0.0650 
     76 H76        31.9320  -42.9001  -52.3867 H         1 UNK         0.1397 
     77 H77        28.9463  -42.2220  -55.3909 H         1 UNK         0.1363 
     78 H78        33.0575  -41.3432  -56.2161 H         1 UNK         0.1355 
     79 H79        29.8265  -40.4675  -57.2638 H         1 UNK         0.0707 
     80 H80        31.4490  -40.7514  -57.8112 H         1 UNK         0.0707 
     81 H81        27.7570  -42.3721  -59.2027 H         1 UNK         0.1034 
     82 H82        27.9608  -41.7091  -57.6125 H         1 UNK         0.1034 
     83 H83        28.2934  -44.1505  -56.7604 H         1 UNK         0.0482 
     84 H84        25.0502  -43.4753  -55.5070 H         1 UNK         0.3460 
     85 H85        26.7355  -43.7498  -55.1540 H         1 UNK         0.3460 
     86 H86        26.7795  -45.1148  -59.0460 H         1 UNK         0.2989 
     87 H87        27.6383  -46.7798  -60.4328 H         1 UNK         0.0559 
     88 H88        29.8710  -48.4808  -59.2080 H         1 UNK         0.0848 
     89 H89        30.0694  -47.3992  -60.5797 H         1 UNK         0.0848 
     90 H90        29.0077  -48.7941  -60.7060 H         1 UNK         0.0848 
     91 H91        27.7396  -48.4920  -57.9805 H         1 UNK         0.3144 
     92 H92        24.9967  -47.7663  -56.8099 H         1 UNK         0.0727 
     93 H93        23.8792  -49.8028  -58.7985 H         1 UNK         0.0790 
     94 H94        23.1630  -48.2676  -58.3424 H         1 UNK         0.0790 
     95 H95        23.2752  -49.5583  -57.1590 H         1 UNK         0.0790 
     96 H96        26.2721  -49.2781  -55.9115 H         1 UNK         0.3215 
     97 H97        26.4837  -52.5113  -56.0130 H         1 UNK         0.0863 
     98 H98        29.0485  -51.4671  -57.3240 H         1 UNK         0.0808 
     99 H99        28.1195  -52.8733  -57.8159 H         1 UNK         0.0808 
    100 H100       28.9553  -52.8771  -56.2720 H         1 UNK         0.0808 
    101 H101       28.4235  -50.4972  -55.0902 H         1 UNK         0.3118 
    102 H102       26.4646  -49.4727  -52.3462 H         1 UNK         0.0546 
    103 H103       28.3850  -50.1688  -50.9459 H         1 UNK         0.0828 
    104 H104       28.9699  -51.2351  -52.2213 H         1 UNK         0.0828 
    105 H105       27.4474  -51.5794  -51.4099 H         1 UNK         0.0828 
    106 H106       29.1526  -48.8678  -52.9723 H         1 UNK         0.3005 
    107 H107       28.5279  -46.3808  -55.4997 H         1 UNK         0.1257 
    108 H108       30.3084  -45.4582  -53.7801 H         1 UNK         0.0775 
    109 H109       29.3883  -46.2984  -52.5619 H         1 UNK         0.0775 
    110 H110       28.6180  -42.2718  -52.5653 H         1 UNK         0.0840 
    111 H111       29.6848  -43.4791  -51.8946 H         1 UNK         0.0840 
    112 H112       30.9870  -47.3820  -54.6938 H         1 UNK         0.2987 
    113 H113       31.2223  -50.1857  -56.9060 H         1 UNK         0.0785 
    114 H114       33.3045  -48.9125  -57.4283 H         1 UNK         0.0798 
    115 H115       31.9063  -48.1569  -58.1713 H         1 UNK         0.0798 
    116 H116       32.6071  -47.4509  -56.7313 H         1 UNK         0.0798 
    117 H117       32.8829  -49.0511  -54.8196 H         1 UNK         0.3079 
    118 H118       31.7432  -51.1989  -52.2156 H         1 UNK         0.0794 
    119 H119       34.1767  -51.6998  -52.1096 H         1 UNK         0.0786 
    120 H120       34.3951  -51.1095  -53.7562 H         1 UNK         0.0786 
    121 H121       33.4316  -52.5490  -53.4545 H         1 UNK         0.0786 
    122 H122       33.7382  -49.1156  -52.4078 H         1 UNK         0.3032 
    123 H123       31.5767  -46.4193  -51.5774 H         1 UNK         0.1094 
    124 H124       33.5712  -47.8413  -49.7315 H         1 UNK         0.0794 
    125 H125       33.0214  -46.1713  -49.5803 H         1 UNK         0.0794 
    126 H126       31.8926  -47.4937  -49.3398 H         1 UNK         0.0794 
    127 H127       34.3880  -46.4843  -51.6858 H         1 UNK         0.3016 
@<TRIPOS>BOND
     1    1    2 1    
     2    1   67 1    
     3    1   68 1    
     4    1   69 1    
     5    2    3 2    
     6    2    4 am   BACKBONE|DICT|INTERRES
     7    4    5 1    
     8    4   70 1    
     9    5    6 1    
    10    5   65 1    
    11    5   71 1    
    12    6    7 1    
    13    6   72 1    
    14    6   73 1    
    15    7    8 1    
    16    8    9 1    
    17    8   74 1    
    18    8   75 1    
    19    9   10 ar   
    20    9   14 ar   
    21   10   11 ar   
    22   10   76 1    
    23   11   12 ar   
    24   11   48 1    
    25   12   13 ar   
    26   12   77 1    
    27   13   14 ar   
    28   13   15 1    
    29   14   78 1    
    30   15   16 1    
    31   15   79 1    
    32   15   80 1    
    33   16   17 1    
    34   17   18 1    
    35   17   81 1    
    36   17   82 1    
    37   18   19 1    
    38   18   22 1    
    39   18   83 1    
    40   19   20 am   BACKBONE|DICT|INTERRES
    41   19   21 2    
    42   20   84 1    
    43   20   85 1    
    44   22   23 am   BACKBONE|DICT|INTERRES
    45   22   86 1    
    46   23   24 2    
    47   23   25 1    
    48   25   26 1    
    49   25   27 1    
    50   25   87 1    
    51   26   88 1    
    52   26   89 1    
    53   26   90 1    
    54   27   28 am   BACKBONE|DICT|INTERRES
    55   27   91 1    
    56   28   29 2    
    57   28   30 1    
    58   30   31 1    
    59   30   32 1    
    60   30   92 1    
    61   31   93 1    
    62   31   94 1    
    63   31   95 1    
    64   32   33 am   BACKBONE|DICT|INTERRES
    65   32   96 1    
    66   33   34 2    
    67   33   35 1    
    68   35   36 1    
    69   35   37 1    
    70   35   97 1    
    71   36   98 1    
    72   36   99 1    
    73   36  100 1    
    74   37   38 am   BACKBONE|DICT|INTERRES
    75   37  101 1    
    76   38   39 2    
    77   38   40 1    
    78   40   41 1    
    79   40   42 1    
    80   40  102 1    
    81   41  103 1    
    82   41  104 1    
    83   41  105 1    
    84   42   43 am   BACKBONE|DICT|INTERRES
    85   42  106 1    
    86   43   44 2    
    87   43   45 1    
    88   45   46 1    
    89   45   49 1    
    90   45  107 1    
    91   46   47 1    
    92   46  108 1    
    93   46  109 1    
    94   47   48 1    
    95   48  110 1    
    96   48  111 1    
    97   49   50 am   BACKBONE|DICT|INTERRES
    98   49  112 1    
    99   50   51 2    
   100   50   52 1    
   101   52   53 1    
   102   52   54 1    
   103   52  113 1    
   104   53  114 1    
   105   53  115 1    
   106   53  116 1    
   107   54   55 am   BACKBONE|DICT|INTERRES
   108   54  117 1    
   109   55   56 2    
   110   55   57 1    
   111   57   58 1    
   112   57   59 1    
   113   57  118 1    
   114   58  119 1    
   115   58  120 1    
   116   58  121 1    
   117   59   60 am   BACKBONE|DICT|INTERRES
   118   59  122 1    
   119   60   61 2    
   120   60   62 1    
   121   62   63 1    
   122   62   64 1    
   123   62  123 1    
   124   63  124 1    
   125   63  125 1    
   126   63  126 1    
   127   64   65 am   BACKBONE|DICT|INTERRES
   128   64  127 1    
   129   65   66 2    
@<TRIPOS>SUBSTRUCTURE
     1 UNK         1 GROUP             0       ****    0 ROOT    
