@<TRIPOS>MOLECULE
3R134
127   129    1
SMALL
USER_CHARGES


@<TRIPOS>ATOM
      1 CA         34.6526  -46.9922  -58.0061 C.3       0 UNK        -0.1968 
      2 C          35.0019  -46.3411  -56.6751 C.2       0 UNK         0.4852 
      3 O          36.1075  -45.8169  -56.5311 O.2       0 UNK        -0.5359 
      4 N          34.0614  -46.3809  -55.7206 N.am      1 UNK        -0.4300 
      5 CA         34.1539  -45.9003  -54.3336 C.3       1 UNK         0.0863 
      6 C6         34.5965  -44.4143  -54.1939 C.3       11 UNK        -0.0953 
      7 S7         33.5634  -43.2610  -55.1634 S.3       11 UNK        -0.2369 
      8 C8         32.6234  -42.3982  -53.8669 C.3       11 UNK         0.0226 
      9 C9         31.4388  -43.2197  -53.3804 C.ar      11 UNK        -0.0699 
     10 C10        31.5790  -44.0973  -52.3020 C.ar      11 UNK        -0.0804 
     11 C11        30.4847  -44.8326  -51.8373 C.ar      11 UNK        -0.0871 
     12 C12        29.2360  -44.6699  -52.4462 C.ar      11 UNK        -0.1008 
     13 C13        29.0809  -43.7826  -53.5156 C.ar      11 UNK        -0.0735 
     14 C14        30.1884  -43.0722  -53.9877 C.ar      11 UNK        -0.0945 
     15 C15        27.7086  -43.5458  -54.1257 C.3       11 UNK         0.0169 
     16 S16        27.2525  -44.8420  -55.3146 S.3       11 UNK        -0.2669 
     17 C17        25.7180  -44.1161  -56.0011 C.3       11 UNK        -0.0850 
     18 CA         25.7960  -43.7472  -57.5058 C.3       10 UNK         0.0855 
     19 C          26.8768  -42.6649  -57.8044 C.2       10 UNK         0.5543 
     20 N          27.8863  -42.9399  -58.6214 N.am      10 UNK        -0.7343 
     21 O          26.7863  -41.5517  -57.2924 O.2       10 UNK        -0.5027 
     22 N          25.8364  -44.9473  -58.3583 N.am      10 UNK        -0.4495 
     23 C          25.4965  -44.9683  -59.6555 C.2       10 UNK         0.4903 
     24 O          25.1219  -43.9788  -60.2852 O.2       10 UNK        -0.4860 
     25 CA         25.5568  -46.3263  -60.3679 C.3       9 UNK         0.0227 
     26 CB         27.0107  -46.7166  -60.6845 C.3       9 UNK        -0.1964 
     27 N          24.9281  -47.3644  -59.5510 N.am      9 UNK        -0.4231 
     28 C          23.6383  -47.7228  -59.6299 C.2       9 UNK         0.5014 
     29 O          22.8502  -47.2641  -60.4584 O.2       9 UNK        -0.5270 
     30 CA         23.1290  -48.7792  -58.6292 C.3       8 UNK         0.0284 
     31 CB         23.1583  -50.1781  -59.2667 C.3       8 UNK        -0.1977 
     32 N          23.8828  -48.8083  -57.3740 N.am      8 UNK        -0.4342 
     33 C          23.8406  -47.8543  -56.4338 C.2       8 UNK         0.5039 
     34 O          23.0873  -46.8816  -56.4794 O.2       8 UNK        -0.5547 
     35 CA         24.8193  -47.9934  -55.2517 C.3       7 UNK         0.0281 
     36 CB         24.1265  -48.6765  -54.0619 C.3       7 UNK        -0.1963 
     37 N          26.0696  -48.7037  -55.5526 N.am      7 UNK        -0.4444 
     38 C          26.9335  -48.4122  -56.5338 C.2       7 UNK         0.5104 
     39 O          26.7487  -47.5274  -57.3705 O.2       7 UNK        -0.5100 
     40 CA         28.2136  -49.2617  -56.5878 C.3       6 UNK         0.0396 
     41 CB         28.8368  -49.2765  -57.9956 C.3       6 UNK        -0.1801 
     42 N          29.2156  -48.7845  -55.6370 N.am      6 UNK        -0.4747 
     43 C          29.1587  -48.8956  -54.3035 C.2       6 UNK         0.5012 
     44 O          28.2322  -49.4482  -53.7062 O.2       6 UNK        -0.5003 
     45 CA         30.3799  -48.3615  -53.5241 C.3       5 UNK         0.0782 
     46 C46        30.0782  -48.1879  -52.0155 C.3       11 UNK        -0.0868 
     47 S47        31.4359  -47.3406  -51.1429 S.3       11 UNK        -0.2515 
     48 C48        30.6526  -45.7730  -50.6538 C.3       11 UNK         0.0199 
     49 N          31.5256  -49.2518  -53.7520 N.am      5 UNK        -0.4607 
     50 C          32.2644  -49.2772  -54.8663 C.2       4 UNK         0.5031 
     51 O          32.1331  -48.4556  -55.7772 O.2       4 UNK        -0.5119 
     52 CA         33.3069  -50.3995  -54.9755 C.3       4 UNK         0.0263 
     53 CB         34.1270  -50.3223  -56.2767 C.3       4 UNK        -0.1967 
     54 N          34.2266  -50.3540  -53.8401 N.am      4 UNK        -0.4237 
     55 C          34.3194  -51.2788  -52.8747 C.2       3 UNK         0.4908 
     56 O          33.5755  -52.2568  -52.7938 O.2       3 UNK        -0.5102 
     57 CA         35.4358  -51.1048  -51.8275 C.3       3 UNK         0.0241 
     58 CB         36.6443  -51.9855  -52.1856 C.3       3 UNK        -0.1971 
     59 N          35.8800  -49.7159  -51.6981 N.am      3 UNK        -0.4139 
     60 C          35.2389  -48.7810  -50.9863 C.2       2 UNK         0.5016 
     61 O          34.2677  -49.0177  -50.2688 O.2       2 UNK        -0.5319 
     62 CA         35.7555  -47.3345  -51.1012 C.3       2 UNK         0.0286 
     63 CB         37.2880  -47.2390  -51.2788 C.3       2 UNK        -0.1963 
     64 N          35.0541  -46.5764  -52.1475 N.am      2 UNK        -0.4790 
     65 C          35.0055  -46.8517  -53.4608 C.2       1 UNK         0.5024 
     66 O          35.5723  -47.8248  -53.9663 O.2       1 UNK        -0.4888 
     67 H67        34.6598  -46.2473  -58.8012 H         1 UNK         0.0892 
     68 H68        35.3845  -47.7613  -58.2516 H         1 UNK         0.0892 
     69 H69        33.6670  -47.4578  -57.9860 H         1 UNK         0.0892 
     70 H70        33.2226  -46.9248  -55.9087 H         1 UNK         0.3107 
     71 H71        33.1380  -45.9791  -53.9434 H         1 UNK         0.0773 
     72 H72        34.5809  -44.1007  -53.1500 H         1 UNK         0.0680 
     73 H73        35.6314  -44.2872  -54.5139 H         1 UNK         0.0680 
     74 H74        32.2683  -41.4500  -54.2734 H         1 UNK         0.0650 
     75 H75        33.2802  -42.1380  -53.0356 H         1 UNK         0.0650 
     76 H76        32.5388  -44.2051  -51.8173 H         1 UNK         0.1397 
     77 H77        28.3789  -45.2184  -52.0798 H         1 UNK         0.1363 
     78 H78        30.0724  -42.3847  -54.8147 H         1 UNK         0.1355 
     79 H79        26.9575  -43.5027  -53.3354 H         1 UNK         0.0707 
     80 H80        27.6854  -42.5754  -54.6248 H         1 UNK         0.0707 
     81 H81        25.4377  -43.2338  -55.4229 H         1 UNK         0.1034 
     82 H82        24.9020  -44.8214  -55.8436 H         1 UNK         0.1034 
     83 H83        24.8483  -43.2564  -57.7367 H         1 UNK         0.0482 
     84 H84        27.9659  -43.8536  -59.0365 H         1 UNK         0.3460 
     85 H85        28.5770  -42.2320  -58.8129 H         1 UNK         0.3460 
     86 H86        26.1755  -45.7993  -57.9188 H         1 UNK         0.2989 
     87 H87        25.0255  -46.2352  -61.3178 H         1 UNK         0.0559 
     88 H88        27.6201  -46.8014  -59.7846 H         1 UNK         0.0848 
     89 H89        27.0582  -47.6705  -61.2099 H         1 UNK         0.0848 
     90 H90        27.4815  -45.9706  -61.3261 H         1 UNK         0.0848 
     91 H91        25.4914  -47.7258  -58.7869 H         1 UNK         0.3144 
     92 H92        22.0910  -48.5335  -58.3944 H         1 UNK         0.0727 
     93 H93        22.7282  -50.9274  -58.6016 H         1 UNK         0.0790 
     94 H94        24.1741  -50.4894  -59.5140 H         1 UNK         0.0790 
     95 H95        22.5782  -50.1974  -60.1906 H         1 UNK         0.0790 
     96 H96        24.5197  -49.5800  -57.2384 H         1 UNK         0.3215 
     97 H97        25.0969  -46.9849  -54.9433 H         1 UNK         0.0863 
     98 H98        24.7656  -48.6799  -53.1787 H         1 UNK         0.0808 
     99 H99        23.8598  -49.7095  -54.2888 H         1 UNK         0.0808 
    100 H100       23.2076  -48.1539  -53.7918 H         1 UNK         0.0808 
    101 H101       26.3714  -49.3913  -54.8723 H         1 UNK         0.3118 
    102 H102       27.9493  -50.2892  -56.3292 H         1 UNK         0.0546 
    103 H103       28.1152  -49.6154  -58.7401 H         1 UNK         0.0828 
    104 H104       29.6921  -49.9508  -58.0433 H         1 UNK         0.0828 
    105 H105       29.1765  -48.2853  -58.2988 H         1 UNK         0.0828 
    106 H106       30.0488  -48.3642  -56.0339 H         1 UNK         0.3005 
    107 H107       30.6086  -47.3719  -53.9288 H         1 UNK         0.1257 
    108 H108       29.9175  -49.1570  -51.5394 H         1 UNK         0.0775 
    109 H109       29.1537  -47.6262  -51.8709 H         1 UNK         0.0775 
    110 H110       29.6943  -45.9723  -50.1714 H         1 UNK         0.0840 
    111 H111       31.2746  -45.2931  -49.8968 H         1 UNK         0.0840 
    112 H112       31.6940  -49.9507  -53.0426 H         1 UNK         0.2987 
    113 H113       32.7532  -51.3405  -54.9889 H         1 UNK         0.0785 
    114 H114       33.4792  -50.3222  -57.1544 H         1 UNK         0.0798 
    115 H115       34.7968  -51.1771  -56.3702 H         1 UNK         0.0798 
    116 H116       34.7356  -49.4190  -56.3138 H         1 UNK         0.0798 
    117 H117       34.8398  -49.5423  -53.8068 H         1 UNK         0.3079 
    118 H118       35.0423  -51.4429  -50.8663 H         1 UNK         0.0794 
    119 H119       36.3538  -53.0343  -52.2622 H         1 UNK         0.0786 
    120 H120       37.4214  -51.9213  -51.4236 H         1 UNK         0.0786 
    121 H121       37.0854  -51.6988  -53.1412 H         1 UNK         0.0786 
    122 H122       36.6501  -49.4224  -52.2829 H         1 UNK         0.3032 
    123 H123       35.5107  -46.8531  -50.1525 H         1 UNK         0.1094 
    124 H124       37.6244  -46.2056  -51.1943 H         1 UNK         0.0794 
    125 H125       37.8074  -47.8078  -50.5062 H         1 UNK         0.0794 
    126 H126       37.6264  -47.6127  -52.2454 H         1 UNK         0.0794 
    127 H127       34.5146  -45.7931  -51.8083 H         1 UNK         0.3016 
@<TRIPOS>BOND
     1    1    2 1    
     2    1   67 1    
     3    1   68 1    
     4    1   69 1    
     5    2    3 2    
     6    2    4 am   BACKBONE|DICT|INTERRES
     7    4    5 1    
     8    4   70 1    
     9    5    6 1    
    10    5   65 1    
    11    5   71 1    
    12    6    7 1    
    13    6   72 1    
    14    6   73 1    
    15    7    8 1    
    16    8    9 1    
    17    8   74 1    
    18    8   75 1    
    19    9   10 ar   
    20    9   14 ar   
    21   10   11 ar   
    22   10   76 1    
    23   11   12 ar   
    24   11   48 1    
    25   12   13 ar   
    26   12   77 1    
    27   13   14 ar   
    28   13   15 1    
    29   14   78 1    
    30   15   16 1    
    31   15   79 1    
    32   15   80 1    
    33   16   17 1    
    34   17   18 1    
    35   17   81 1    
    36   17   82 1    
    37   18   19 1    
    38   18   22 1    
    39   18   83 1    
    40   19   20 am   BACKBONE|DICT|INTERRES
    41   19   21 2    
    42   20   84 1    
    43   20   85 1    
    44   22   23 am   BACKBONE|DICT|INTERRES
    45   22   86 1    
    46   23   24 2    
    47   23   25 1    
    48   25   26 1    
    49   25   27 1    
    50   25   87 1    
    51   26   88 1    
    52   26   89 1    
    53   26   90 1    
    54   27   28 am   BACKBONE|DICT|INTERRES
    55   27   91 1    
    56   28   29 2    
    57   28   30 1    
    58   30   31 1    
    59   30   32 1    
    60   30   92 1    
    61   31   93 1    
    62   31   94 1    
    63   31   95 1    
    64   32   33 am   BACKBONE|DICT|INTERRES
    65   32   96 1    
    66   33   34 2    
    67   33   35 1    
    68   35   36 1    
    69   35   37 1    
    70   35   97 1    
    71   36   98 1    
    72   36   99 1    
    73   36  100 1    
    74   37   38 am   BACKBONE|DICT|INTERRES
    75   37  101 1    
    76   38   39 2    
    77   38   40 1    
    78   40   41 1    
    79   40   42 1    
    80   40  102 1    
    81   41  103 1    
    82   41  104 1    
    83   41  105 1    
    84   42   43 am   BACKBONE|DICT|INTERRES
    85   42  106 1    
    86   43   44 2    
    87   43   45 1    
    88   45   46 1    
    89   45   49 1    
    90   45  107 1    
    91   46   47 1    
    92   46  108 1    
    93   46  109 1    
    94   47   48 1    
    95   48  110 1    
    96   48  111 1    
    97   49   50 am   BACKBONE|DICT|INTERRES
    98   49  112 1    
    99   50   51 2    
   100   50   52 1    
   101   52   53 1    
   102   52   54 1    
   103   52  113 1    
   104   53  114 1    
   105   53  115 1    
   106   53  116 1    
   107   54   55 am   BACKBONE|DICT|INTERRES
   108   54  117 1    
   109   55   56 2    
   110   55   57 1    
   111   57   58 1    
   112   57   59 1    
   113   57  118 1    
   114   58  119 1    
   115   58  120 1    
   116   58  121 1    
   117   59   60 am   BACKBONE|DICT|INTERRES
   118   59  122 1    
   119   60   61 2    
   120   60   62 1    
   121   62   63 1    
   122   62   64 1    
   123   62  123 1    
   124   63  124 1    
   125   63  125 1    
   126   63  126 1    
   127   64   65 am   BACKBONE|DICT|INTERRES
   128   64  127 1    
   129   65   66 2    
@<TRIPOS>SUBSTRUCTURE
     1 UNK         1 GROUP             0       ****    0 ROOT    
