@<TRIPOS>MOLECULE
3R134
127   129    1
SMALL
USER_CHARGES


@<TRIPOS>ATOM
      1 CA         34.2369  -47.5716  -50.3460 C.3       0 UNK        -0.1968 
      2 C          35.4302  -47.0024  -51.0995 C.2       0 UNK         0.4852 
      3 O          36.5699  -47.3690  -50.8106 O.2       0 UNK        -0.5359 
      4 N          35.1748  -46.1127  -52.0673 N.am      1 UNK        -0.4300 
      5 CA         36.1759  -45.4959  -52.9503 C.3       1 UNK         0.0863 
      6 C6         35.6131  -44.2432  -53.6731 C.3       11 UNK        -0.0953 
      7 S7         33.9724  -44.5098  -54.4401 S.3       11 UNK        -0.2369 
      8 C8         33.0046  -43.1838  -53.6500 C.3       11 UNK         0.0226 
      9 C9         31.5038  -43.3676  -53.8336 C.ar      11 UNK        -0.0699 
     10 C10        30.6641  -43.4222  -52.7170 C.ar      11 UNK        -0.0804 
     11 C11        29.2807  -43.5540  -52.8702 C.ar      11 UNK        -0.0871 
     12 C12        28.7363  -43.6505  -54.1549 C.ar      11 UNK        -0.1008 
     13 C13        29.5663  -43.5999  -55.2796 C.ar      11 UNK        -0.0735 
     14 C14        30.9462  -43.4490  -55.1132 C.ar      11 UNK        -0.0945 
     15 C15        28.9786  -43.7179  -56.6757 C.3       11 UNK         0.0169 
     16 S16        28.2658  -42.1434  -57.2351 S.3       11 UNK        -0.2669 
     17 C17        28.1587  -42.4149  -59.0378 C.3       11 UNK        -0.0850 
     18 CA         26.8239  -43.0737  -59.4739 C.3       10 UNK         0.0855 
     19 C          26.5931  -42.9211  -61.0062 C.2       10 UNK         0.5543 
     20 N          26.4894  -43.9969  -61.7779 N.am      10 UNK        -0.7343 
     21 O          26.4944  -41.8017  -61.5027 O.2       10 UNK        -0.5027 
     22 N          26.7340  -44.4660  -59.0045 N.am      10 UNK        -0.4495 
     23 C          25.6048  -45.0923  -58.6638 C.2       10 UNK         0.4903 
     24 O          24.5050  -44.5391  -58.6303 O.2       10 UNK        -0.4860 
     25 CA         25.6872  -46.5877  -58.3000 C.3       9 UNK         0.0227 
     26 CB         25.2409  -47.4619  -59.4877 C.3       9 UNK        -0.1964 
     27 N          26.9643  -47.0733  -57.7536 N.am      9 UNK        -0.4231 
     28 C          28.1682  -47.1688  -58.3394 C.2       9 UNK         0.5014 
     29 O          28.4415  -46.6711  -59.4321 O.2       9 UNK        -0.5270 
     30 CA         29.2478  -47.9716  -57.5879 C.3       8 UNK         0.0284 
     31 CB         30.0352  -47.0826  -56.6127 C.3       8 UNK        -0.1977 
     32 N          28.6993  -49.1164  -56.8581 N.am      8 UNK        -0.4342 
     33 C          28.1447  -50.1991  -57.4222 C.2       8 UNK         0.5039 
     34 O          28.0801  -50.3869  -58.6376 O.2       8 UNK        -0.5547 
     35 CA         27.5459  -51.2414  -56.4665 C.3       7 UNK         0.0281 
     36 CB         28.6380  -52.1665  -55.9051 C.3       7 UNK        -0.1963 
     37 N          26.8318  -50.5988  -55.3625 N.am      7 UNK        -0.4444 
     38 C          25.5593  -50.1842  -55.4234 C.2       7 UNK         0.5104 
     39 O          24.8271  -50.3583  -56.3976 O.2       7 UNK        -0.5100 
     40 CA         25.0013  -49.4504  -54.1894 C.3       6 UNK         0.0396 
     41 CB         24.2868  -50.4411  -53.2566 C.3       6 UNK        -0.1801 
     42 N          26.0184  -48.7186  -53.4283 N.am      6 UNK        -0.4747 
     43 C          26.6517  -47.6208  -53.8666 C.2       6 UNK         0.5012 
     44 O          26.4448  -47.1053  -54.9642 O.2       6 UNK        -0.5003 
     45 CA         27.7316  -47.0237  -52.9422 C.3       5 UNK         0.0782 
     46 C46        27.0783  -46.0472  -51.9358 C.3       11 UNK        -0.0868 
     47 S47        28.2943  -45.2035  -50.8705 S.3       11 UNK        -0.2515 
     48 C48        28.3830  -43.5573  -51.6415 C.3       11 UNK         0.0199 
     49 N          28.5690  -48.0349  -52.2789 N.am      5 UNK        -0.4607 
     50 C          29.2534  -49.0024  -52.9009 C.2       4 UNK         0.5031 
     51 O          29.1508  -49.2466  -54.1048 O.2       4 UNK        -0.5119 
     52 CA         30.1693  -49.8762  -52.0282 C.3       4 UNK         0.0263 
     53 CB         29.3609  -51.0190  -51.3929 C.3       4 UNK        -0.1967 
     54 N          31.2660  -50.4481  -52.8147 N.am      4 UNK        -0.4237 
     55 C          32.2445  -49.7298  -53.3798 C.2       3 UNK         0.4908 
     56 O          32.4158  -48.5218  -53.1823 O.2       3 UNK        -0.5102 
     57 CA         33.1779  -50.4855  -54.3368 C.3       3 UNK         0.0241 
     58 CB         32.4229  -51.0049  -55.5752 C.3       3 UNK        -0.1971 
     59 N          34.2185  -49.5588  -54.7623 N.am      3 UNK        -0.4139 
     60 C          35.5105  -49.8440  -54.9537 C.2       2 UNK         0.5016 
     61 O          35.9842  -50.9798  -54.9131 O.2       2 UNK        -0.5319 
     62 CA         36.4317  -48.6409  -55.1843 C.3       2 UNK         0.0286 
     63 CB         36.3965  -48.1914  -56.6576 C.3       2 UNK        -0.1963 
     64 N          36.0410  -47.5472  -54.2931 N.am      2 UNK        -0.4790 
     65 C          36.7912  -46.4924  -53.9585 C.2       1 UNK         0.5024 
     66 O          37.9225  -46.2889  -54.4018 O.2       1 UNK        -0.4888 
     67 H67        34.2040  -48.6548  -50.4604 H         1 UNK         0.0892 
     68 H68        34.3166  -47.3412  -49.2841 H         1 UNK         0.0892 
     69 H69        33.2931  -47.1673  -50.7125 H         1 UNK         0.0892 
     70 H70        34.2177  -45.8560  -52.2678 H         1 UNK         0.3107 
     71 H71        37.0017  -45.1622  -52.3179 H         1 UNK         0.0773 
     72 H72        36.3031  -43.8858  -54.4403 H         1 UNK         0.0680 
     73 H73        35.5439  -43.4262  -52.9538 H         1 UNK         0.0680 
     74 H74        33.3038  -42.2231  -54.0712 H         1 UNK         0.0650 
     75 H75        33.2502  -43.1487  -52.5875 H         1 UNK         0.0650 
     76 H76        31.0837  -43.3481  -51.7228 H         1 UNK         0.1397 
     77 H77        27.6674  -43.7544  -54.2839 H         1 UNK         0.1363 
     78 H78        31.5913  -43.4004  -55.9799 H         1 UNK         0.1355 
     79 H79        29.7461  -44.0409  -57.3799 H         1 UNK         0.0707 
     80 H80        28.2054  -44.4866  -56.6791 H         1 UNK         0.0707 
     81 H81        28.2675  -41.4324  -59.5017 H         1 UNK         0.1034 
     82 H82        29.0130  -42.9987  -59.3849 H         1 UNK         0.1034 
     83 H83        26.0184  -42.5037  -59.0068 H         1 UNK         0.0482 
     84 H84        26.5764  -44.9187  -61.3810 H         1 UNK         0.3460 
     85 H85        26.3345  -43.8835  -62.7673 H         1 UNK         0.3460 
     86 H86        27.5690  -45.0367  -59.0979 H         1 UNK         0.2989 
     87 H87        24.9641  -46.7396  -57.4969 H         1 UNK         0.0559 
     88 H88        25.9243  -47.3801  -60.3333 H         1 UNK         0.0848 
     89 H89        24.2510  -47.1688  -59.8401 H         1 UNK         0.0848 
     90 H90        25.1850  -48.5131  -59.2035 H         1 UNK         0.0848 
     91 H91        26.8938  -47.3947  -56.7910 H         1 UNK         0.3144 
     92 H92        29.9465  -48.3598  -58.3318 H         1 UNK         0.0727 
     93 H93        29.3870  -46.6350  -55.8591 H         1 UNK         0.0790 
     94 H94        30.5392  -46.2744  -57.1426 H         1 UNK         0.0790 
     95 H95        30.8051  -47.6508  -56.0895 H         1 UNK         0.0790 
     96 H96        28.7735  -49.0892  -55.8414 H         1 UNK         0.3215 
     97 H97        26.8468  -51.8561  -57.0383 H         1 UNK         0.0863 
     98 H98        28.2069  -52.9626  -55.2979 H         1 UNK         0.0808 
     99 H99        29.3501  -51.6231  -55.2850 H         1 UNK         0.0808 
    100 H100       29.2003  -52.6409  -56.7105 H         1 UNK         0.0808 
    101 H101       27.3838  -50.3469  -54.5522 H         1 UNK         0.3118 
    102 H102       24.2636  -48.7276  -54.5449 H         1 UNK         0.0546 
    103 H103       24.9752  -51.1827  -52.8494 H         1 UNK         0.0828 
    104 H104       23.5036  -50.9824  -53.7893 H         1 UNK         0.0828 
    105 H105       23.8109  -49.9280  -52.4208 H         1 UNK         0.0828 
    106 H106       26.2605  -49.0811  -52.5171 H         1 UNK         0.3005 
    107 H107       28.4014  -46.4475  -53.5838 H         1 UNK         0.1257 
    108 H108       26.3842  -46.5815  -51.2840 H         1 UNK         0.0775 
    109 H109       26.4792  -45.2990  -52.4586 H         1 UNK         0.0775 
    110 H110       27.3820  -43.2004  -51.8889 H         1 UNK         0.0840 
    111 H111       28.7748  -42.8519  -50.9070 H         1 UNK         0.0840 
    112 H112       28.7015  -47.9034  -51.2863 H         1 UNK         0.2987 
    113 H113       30.5993  -49.2564  -51.2383 H         1 UNK         0.0785 
    114 H114       28.5540  -50.6313  -50.7696 H         1 UNK         0.0798 
    115 H115       29.9883  -51.6412  -50.7542 H         1 UNK         0.0798 
    116 H116       28.9083  -51.6629  -52.1485 H         1 UNK         0.0798 
    117 H117       31.1892  -51.4275  -53.0453 H         1 UNK         0.3079 
    118 H118       33.6236  -51.3214  -53.7933 H         1 UNK         0.0794 
    119 H119       31.7262  -51.7985  -55.3064 H         1 UNK         0.0786 
    120 H120       33.1093  -51.4220  -56.3123 H         1 UNK         0.0786 
    121 H121       31.8502  -50.2138  -56.0621 H         1 UNK         0.0786 
    122 H122       33.9097  -48.5963  -54.7944 H         1 UNK         0.3032 
    123 H123       37.4484  -48.9508  -54.9316 H         1 UNK         0.1094 
    124 H124       37.1193  -47.3988  -56.8511 H         1 UNK         0.0794 
    125 H125       35.4112  -47.8216  -56.9439 H         1 UNK         0.0794 
    126 H126       36.6422  -49.0196  -57.3237 H         1 UNK         0.0794 
    127 H127       35.1571  -47.6512  -53.8151 H         1 UNK         0.3016 
@<TRIPOS>BOND
     1    1    2 1    
     2    1   67 1    
     3    1   68 1    
     4    1   69 1    
     5    2    3 2    
     6    2    4 am   BACKBONE|DICT|INTERRES
     7    4    5 1    
     8    4   70 1    
     9    5    6 1    
    10    5   65 1    
    11    5   71 1    
    12    6    7 1    
    13    6   72 1    
    14    6   73 1    
    15    7    8 1    
    16    8    9 1    
    17    8   74 1    
    18    8   75 1    
    19    9   10 ar   
    20    9   14 ar   
    21   10   11 ar   
    22   10   76 1    
    23   11   12 ar   
    24   11   48 1    
    25   12   13 ar   
    26   12   77 1    
    27   13   14 ar   
    28   13   15 1    
    29   14   78 1    
    30   15   16 1    
    31   15   79 1    
    32   15   80 1    
    33   16   17 1    
    34   17   18 1    
    35   17   81 1    
    36   17   82 1    
    37   18   19 1    
    38   18   22 1    
    39   18   83 1    
    40   19   20 am   BACKBONE|DICT|INTERRES
    41   19   21 2    
    42   20   84 1    
    43   20   85 1    
    44   22   23 am   BACKBONE|DICT|INTERRES
    45   22   86 1    
    46   23   24 2    
    47   23   25 1    
    48   25   26 1    
    49   25   27 1    
    50   25   87 1    
    51   26   88 1    
    52   26   89 1    
    53   26   90 1    
    54   27   28 am   BACKBONE|DICT|INTERRES
    55   27   91 1    
    56   28   29 2    
    57   28   30 1    
    58   30   31 1    
    59   30   32 1    
    60   30   92 1    
    61   31   93 1    
    62   31   94 1    
    63   31   95 1    
    64   32   33 am   BACKBONE|DICT|INTERRES
    65   32   96 1    
    66   33   34 2    
    67   33   35 1    
    68   35   36 1    
    69   35   37 1    
    70   35   97 1    
    71   36   98 1    
    72   36   99 1    
    73   36  100 1    
    74   37   38 am   BACKBONE|DICT|INTERRES
    75   37  101 1    
    76   38   39 2    
    77   38   40 1    
    78   40   41 1    
    79   40   42 1    
    80   40  102 1    
    81   41  103 1    
    82   41  104 1    
    83   41  105 1    
    84   42   43 am   BACKBONE|DICT|INTERRES
    85   42  106 1    
    86   43   44 2    
    87   43   45 1    
    88   45   46 1    
    89   45   49 1    
    90   45  107 1    
    91   46   47 1    
    92   46  108 1    
    93   46  109 1    
    94   47   48 1    
    95   48  110 1    
    96   48  111 1    
    97   49   50 am   BACKBONE|DICT|INTERRES
    98   49  112 1    
    99   50   51 2    
   100   50   52 1    
   101   52   53 1    
   102   52   54 1    
   103   52  113 1    
   104   53  114 1    
   105   53  115 1    
   106   53  116 1    
   107   54   55 am   BACKBONE|DICT|INTERRES
   108   54  117 1    
   109   55   56 2    
   110   55   57 1    
   111   57   58 1    
   112   57   59 1    
   113   57  118 1    
   114   58  119 1    
   115   58  120 1    
   116   58  121 1    
   117   59   60 am   BACKBONE|DICT|INTERRES
   118   59  122 1    
   119   60   61 2    
   120   60   62 1    
   121   62   63 1    
   122   62   64 1    
   123   62  123 1    
   124   63  124 1    
   125   63  125 1    
   126   63  126 1    
   127   64   65 am   BACKBONE|DICT|INTERRES
   128   64  127 1    
   129   65   66 2    
@<TRIPOS>SUBSTRUCTURE
     1 UNK         1 GROUP             0       ****    0 ROOT    
