@<TRIPOS>MOLECULE
3R134
127   129    1
SMALL
USER_CHARGES


@<TRIPOS>ATOM
      1 CA         36.3075  -44.1715  -47.6393 C.3       0 UNK        -0.1968 
      2 C          36.3266  -43.9374  -49.1431 C.2       0 UNK         0.4852 
      3 O          36.6597  -42.8365  -49.5848 O.2       0 UNK        -0.5359 
      4 N          35.9733  -44.9614  -49.9277 N.am      1 UNK        -0.4300 
      5 CA         35.9588  -44.9361  -51.3880 C.3       1 UNK         0.0863 
      6 C6         34.6725  -44.2723  -51.9596 C.3       11 UNK        -0.0953 
      7 S7         34.8545  -43.7531  -53.7029 S.3       11 UNK        -0.2369 
      8 C8         33.7852  -44.9306  -54.5969 C.3       11 UNK         0.0226 
      9 C9         32.3536  -44.4392  -54.7885 C.ar      11 UNK        -0.0699 
     10 C10        31.5568  -44.1039  -53.6904 C.ar      11 UNK        -0.0804 
     11 C11        30.2210  -43.7331  -53.8602 C.ar      11 UNK        -0.0871 
     12 C12        29.6767  -43.6974  -55.1467 C.ar      11 UNK        -0.1008 
     13 C13        30.4587  -44.0324  -56.2579 C.ar      11 UNK        -0.0735 
     14 C14        31.7981  -44.3891  -56.0714 C.ar      11 UNK        -0.0945 
     15 C15        29.8444  -44.0865  -57.6505 C.3       11 UNK         0.0169 
     16 S16        28.9678  -42.5519  -58.0950 S.3       11 UNK        -0.2669 
     17 C17        28.1480  -43.0523  -59.6488 C.3       11 UNK        -0.0850 
     18 CA         26.6693  -43.4774  -59.4369 C.3       10 UNK         0.0855 
     19 C          25.9374  -43.6738  -60.7985 C.2       10 UNK         0.5543 
     20 N          25.3952  -44.8452  -61.1130 N.am      10 UNK        -0.7343 
     21 O          25.8546  -42.7351  -61.5867 O.2       10 UNK        -0.5027 
     22 N          26.5704  -44.6293  -58.5292 N.am      10 UNK        -0.4495 
     23 C          25.4981  -44.9602  -57.8014 C.2       10 UNK         0.4903 
     24 O          24.4711  -44.2823  -57.7447 O.2       10 UNK        -0.4860 
     25 CA         25.6047  -46.2793  -57.0082 C.3       9 UNK         0.0227 
     26 CB         24.2282  -46.8715  -56.6418 C.3       9 UNK        -0.1964 
     27 N          26.4441  -47.2958  -57.6605 N.am      9 UNK        -0.4231 
     28 C          26.2783  -47.8227  -58.8846 C.2       9 UNK         0.5014 
     29 O          25.3863  -47.4855  -59.6640 O.2       9 UNK        -0.5270 
     30 CA         27.2910  -48.8865  -59.3274 C.3       8 UNK         0.0284 
     31 CB         28.5682  -48.2208  -59.8704 C.3       8 UNK        -0.1977 
     32 N          27.6337  -49.7907  -58.2250 N.am      8 UNK        -0.4342 
     33 C          27.2964  -51.0858  -58.1728 C.2       8 UNK         0.5039 
     34 O          26.6714  -51.6690  -59.0602 O.2       8 UNK        -0.5547 
     35 CA         27.7344  -51.8842  -56.9333 C.3       7 UNK         0.0281 
     36 CB         29.1559  -52.4406  -57.1155 C.3       7 UNK        -0.1963 
     37 N          27.6574  -51.1373  -55.6754 N.am      7 UNK        -0.4444 
     38 C          26.5107  -50.8182  -55.0569 C.2       7 UNK         0.5104 
     39 O          25.3938  -51.0194  -55.5339 O.2       7 UNK        -0.5100 
     40 CA         26.6273  -50.1939  -53.6584 C.3       6 UNK         0.0396 
     41 CB         26.9560  -51.2720  -52.6123 C.3       6 UNK        -0.1801 
     42 N          27.6599  -49.1600  -53.6303 N.am      6 UNK        -0.4747 
     43 C          27.4197  -47.8453  -53.7328 C.2       6 UNK         0.5012 
     44 O          26.2885  -47.3614  -53.7630 O.2       6 UNK        -0.5003 
     45 CA         28.6453  -46.9092  -53.8451 C.3       5 UNK         0.0782 
     46 C46        28.9752  -46.2357  -52.4856 C.3       11 UNK        -0.0868 
     47 S47        28.0788  -44.6525  -52.3115 S.3       11 UNK        -0.2515 
     48 C48        29.3679  -43.4030  -52.6417 C.3       11 UNK         0.0199 
     49 N          29.8165  -47.5590  -54.4475 N.am      5 UNK        -0.4607 
     50 C          29.8480  -48.0146  -55.7083 C.2       4 UNK         0.5031 
     51 O          28.9084  -47.8944  -56.4938 O.2       4 UNK        -0.5119 
     52 CA         31.0903  -48.7977  -56.1664 C.3       4 UNK         0.0263 
     53 CB         32.0732  -47.8682  -56.8924 C.3       4 UNK        -0.1967 
     54 N          31.7966  -49.5068  -55.0961 N.am      4 UNK        -0.4237 
     55 C          31.2649  -50.3746  -54.2221 C.2       3 UNK         0.4908 
     56 O          30.0839  -50.7250  -54.2495 O.2       3 UNK        -0.5102 
     57 CA         32.1841  -50.9272  -53.1136 C.3       3 UNK         0.0241 
     58 CB         32.4025  -52.4367  -53.3084 C.3       3 UNK        -0.1971 
     59 N          33.4911  -50.2624  -53.0014 N.am      3 UNK        -0.4139 
     60 C          33.6872  -48.9790  -52.6674 C.2       2 UNK         0.5016 
     61 O          32.7731  -48.1883  -52.4099 O.2       2 UNK        -0.5319 
     62 CA         35.1402  -48.4823  -52.6897 C.3       2 UNK         0.0286 
     63 CB         35.7079  -48.5161  -54.1262 C.3       2 UNK        -0.1963 
     64 N          35.1520  -47.1176  -52.1720 N.am      2 UNK        -0.4790 
     65 C          36.2205  -46.3759  -51.8632 C.2       1 UNK         0.5024 
     66 O          37.3785  -46.7931  -51.9134 O.2       1 UNK        -0.4888 
     67 H67        37.3022  -44.0159  -47.2227 H         1 UNK         0.0892 
     68 H68        35.6239  -43.4715  -47.1596 H         1 UNK         0.0892 
     69 H69        35.9886  -45.1826  -47.3868 H         1 UNK         0.0892 
     70 H70        35.7449  -45.8550  -49.5125 H         1 UNK         0.3107 
     71 H71        36.8183  -44.3483  -51.7193 H         1 UNK         0.0773 
     72 H72        33.7993  -44.9082  -51.8199 H         1 UNK         0.0680 
     73 H73        34.4540  -43.3622  -51.3991 H         1 UNK         0.0680 
     74 H74        33.7592  -45.8898  -54.0835 H         1 UNK         0.0650 
     75 H75        34.2489  -45.1237  -55.5654 H         1 UNK         0.0650 
     76 H76        31.9648  -44.1475  -52.6931 H         1 UNK         0.1397 
     77 H77        28.6363  -43.4336  -55.2800 H         1 UNK         0.1363 
     78 H78        32.4003  -44.6653  -56.9260 H         1 UNK         0.1355 
     79 H79        29.1576  -44.9321  -57.6809 H         1 UNK         0.0707 
     80 H80        30.6090  -44.2811  -58.4042 H         1 UNK         0.0707 
     81 H81        28.7164  -43.8495  -60.1316 H         1 UNK         0.1034 
     82 H82        28.2022  -42.1977  -60.3262 H         1 UNK         0.1034 
     83 H83        26.1603  -42.6405  -58.9546 H         1 UNK         0.0482 
     84 H84        24.9241  -44.9431  -61.9982 H         1 UNK         0.3460 
     85 H85        25.4328  -45.6343  -60.4772 H         1 UNK         0.3460 
     86 H86        27.3554  -45.2606  -58.5276 H         1 UNK         0.2989 
     87 H87        26.1118  -46.0207  -56.0785 H         1 UNK         0.0559 
     88 H88        23.6408  -47.1091  -57.5292 H         1 UNK         0.0848 
     89 H89        23.6464  -46.1709  -56.0419 H         1 UNK         0.0848 
     90 H90        24.3362  -47.7839  -56.0546 H         1 UNK         0.0848 
     91 H91        27.2718  -47.5768  -57.1368 H         1 UNK         0.3144 
     92 H92        26.8344  -49.4421  -60.1491 H         1 UNK         0.0727 
     93 H93        29.2745  -48.9662  -60.2361 H         1 UNK         0.0790 
     94 H94        29.0776  -47.6236  -59.1141 H         1 UNK         0.0790 
     95 H95        28.3363  -47.5587  -60.7059 H         1 UNK         0.0790 
     96 H96        28.1297  -49.3770  -57.4422 H         1 UNK         0.3215 
     97 H97        27.0575  -52.7375  -56.8477 H         1 UNK         0.0863 
     98 H98        29.4442  -53.0748  -56.2767 H         1 UNK         0.0808 
     99 H99        29.8967  -51.6474  -57.2031 H         1 UNK         0.0808 
    100 H100       29.2229  -53.0487  -58.0187 H         1 UNK         0.0808 
    101 H101       28.5352  -50.9692  -55.1877 H         1 UNK         0.3118 
    102 H102       25.6559  -49.7673  -53.3995 H         1 UNK         0.0546 
    103 H103       26.2000  -52.0584  -52.6125 H         1 UNK         0.0828 
    104 H104       26.9837  -50.8506  -51.6074 H         1 UNK         0.0828 
    105 H105       27.9198  -51.7461  -52.8018 H         1 UNK         0.0828 
    106 H106       28.6211  -49.4842  -53.6513 H         1 UNK         0.3005 
    107 H107       28.3552  -46.1321  -54.5558 H         1 UNK         0.1257 
    108 H108       30.0449  -46.0499  -52.3864 H         1 UNK         0.0775 
    109 H109       28.7248  -46.8806  -51.6408 H         1 UNK         0.0775 
    110 H110       28.8909  -42.4330  -52.7883 H         1 UNK         0.0840 
    111 H111       29.9903  -43.3017  -51.7511 H         1 UNK         0.0840 
    112 H112       30.6238  -47.6966  -53.8545 H         1 UNK         0.2987 
    113 H113       30.7471  -49.5449  -56.8821 H         1 UNK         0.0785 
    114 H114       32.5392  -47.1635  -56.2044 H         1 UNK         0.0798 
    115 H115       31.5691  -47.2881  -57.6672 H         1 UNK         0.0798 
    116 H116       32.8673  -48.4341  -57.3798 H         1 UNK         0.0798 
    117 H117       32.7749  -49.2880  -54.9881 H         1 UNK         0.3079 
    118 H118       31.6571  -50.7780  -52.1689 H         1 UNK         0.0794 
    119 H119       32.9410  -52.6509  -54.2325 H         1 UNK         0.0786 
    120 H120       31.4506  -52.9680  -53.3562 H         1 UNK         0.0786 
    121 H121       32.9674  -52.8670  -52.4812 H         1 UNK         0.0786 
    122 H122       34.2982  -50.8355  -53.2044 H         1 UNK         0.3032 
    123 H123       35.7375  -49.1182  -52.0326 H         1 UNK         0.1094 
    124 H124       36.7405  -48.1692  -54.1592 H         1 UNK         0.0794 
    125 H125       35.7075  -49.5276  -54.5336 H         1 UNK         0.0794 
    126 H126       35.1280  -47.8899  -54.8052 H         1 UNK         0.0794 
    127 H127       34.2194  -46.7416  -52.0429 H         1 UNK         0.3016 
@<TRIPOS>BOND
     1    1    2 1    
     2    1   67 1    
     3    1   68 1    
     4    1   69 1    
     5    2    3 2    
     6    2    4 am   BACKBONE|DICT|INTERRES
     7    4    5 1    
     8    4   70 1    
     9    5    6 1    
    10    5   65 1    
    11    5   71 1    
    12    6    7 1    
    13    6   72 1    
    14    6   73 1    
    15    7    8 1    
    16    8    9 1    
    17    8   74 1    
    18    8   75 1    
    19    9   10 ar   
    20    9   14 ar   
    21   10   11 ar   
    22   10   76 1    
    23   11   12 ar   
    24   11   48 1    
    25   12   13 ar   
    26   12   77 1    
    27   13   14 ar   
    28   13   15 1    
    29   14   78 1    
    30   15   16 1    
    31   15   79 1    
    32   15   80 1    
    33   16   17 1    
    34   17   18 1    
    35   17   81 1    
    36   17   82 1    
    37   18   19 1    
    38   18   22 1    
    39   18   83 1    
    40   19   20 am   BACKBONE|DICT|INTERRES
    41   19   21 2    
    42   20   84 1    
    43   20   85 1    
    44   22   23 am   BACKBONE|DICT|INTERRES
    45   22   86 1    
    46   23   24 2    
    47   23   25 1    
    48   25   26 1    
    49   25   27 1    
    50   25   87 1    
    51   26   88 1    
    52   26   89 1    
    53   26   90 1    
    54   27   28 am   BACKBONE|DICT|INTERRES
    55   27   91 1    
    56   28   29 2    
    57   28   30 1    
    58   30   31 1    
    59   30   32 1    
    60   30   92 1    
    61   31   93 1    
    62   31   94 1    
    63   31   95 1    
    64   32   33 am   BACKBONE|DICT|INTERRES
    65   32   96 1    
    66   33   34 2    
    67   33   35 1    
    68   35   36 1    
    69   35   37 1    
    70   35   97 1    
    71   36   98 1    
    72   36   99 1    
    73   36  100 1    
    74   37   38 am   BACKBONE|DICT|INTERRES
    75   37  101 1    
    76   38   39 2    
    77   38   40 1    
    78   40   41 1    
    79   40   42 1    
    80   40  102 1    
    81   41  103 1    
    82   41  104 1    
    83   41  105 1    
    84   42   43 am   BACKBONE|DICT|INTERRES
    85   42  106 1    
    86   43   44 2    
    87   43   45 1    
    88   45   46 1    
    89   45   49 1    
    90   45  107 1    
    91   46   47 1    
    92   46  108 1    
    93   46  109 1    
    94   47   48 1    
    95   48  110 1    
    96   48  111 1    
    97   49   50 am   BACKBONE|DICT|INTERRES
    98   49  112 1    
    99   50   51 2    
   100   50   52 1    
   101   52   53 1    
   102   52   54 1    
   103   52  113 1    
   104   53  114 1    
   105   53  115 1    
   106   53  116 1    
   107   54   55 am   BACKBONE|DICT|INTERRES
   108   54  117 1    
   109   55   56 2    
   110   55   57 1    
   111   57   58 1    
   112   57   59 1    
   113   57  118 1    
   114   58  119 1    
   115   58  120 1    
   116   58  121 1    
   117   59   60 am   BACKBONE|DICT|INTERRES
   118   59  122 1    
   119   60   61 2    
   120   60   62 1    
   121   62   63 1    
   122   62   64 1    
   123   62  123 1    
   124   63  124 1    
   125   63  125 1    
   126   63  126 1    
   127   64   65 am   BACKBONE|DICT|INTERRES
   128   64  127 1    
   129   65   66 2    
@<TRIPOS>SUBSTRUCTURE
     1 UNK         1 GROUP             0       ****    0 ROOT    
