@<TRIPOS>MOLECULE
3R134
127   129    1
SMALL
USER_CHARGES


@<TRIPOS>ATOM
      1 CA         39.0215  -46.8167  -53.5755 C.3       0 UNK        -0.1968 
      2 C          37.5460  -47.0148  -53.8905 C.2       0 UNK         0.4852 
      3 O          37.1710  -48.0608  -54.4207 O.2       0 UNK        -0.5359 
      4 N          36.7092  -46.0199  -53.5648 N.am      1 UNK        -0.4300 
      5 CA         35.2565  -46.0369  -53.7848 C.3       1 UNK         0.0863 
      6 C6         34.6962  -44.6074  -54.0318 C.3       11 UNK        -0.0953 
      7 S7         34.4815  -44.2721  -55.8119 S.3       11 UNK        -0.2369 
      8 C8         32.8967  -45.1072  -56.1562 C.3       11 UNK         0.0226 
      9 C9         31.7006  -44.2739  -55.7214 C.ar      11 UNK        -0.0699 
     10 C10        31.1757  -44.4114  -54.4347 C.ar      11 UNK        -0.0804 
     11 C11        30.0666  -43.6633  -54.0326 C.ar      11 UNK        -0.0871 
     12 C12        29.4808  -42.7659  -54.9306 C.ar      11 UNK        -0.1008 
     13 C13        29.9953  -42.6197  -56.2225 C.ar      11 UNK        -0.0735 
     14 C14        31.1047  -43.3770  -56.6122 C.ar      11 UNK        -0.0945 
     15 C15        29.3693  -41.6355  -57.1980 C.3       11 UNK         0.0169 
     16 S16        28.0264  -42.4059  -58.1517 S.3       11 UNK        -0.2669 
     17 C17        26.5578  -41.8922  -57.1906 C.3       11 UNK        -0.0850 
     18 CA         25.2708  -42.6826  -57.5427 C.3       10 UNK         0.0855 
     19 C          24.7905  -42.4035  -58.9999 C.2       10 UNK         0.5543 
     20 N          24.8502  -43.3636  -59.9170 N.am      10 UNK        -0.7343 
     21 O          24.3460  -41.2969  -59.2954 O.2       10 UNK        -0.5027 
     22 N          25.4079  -44.1044  -57.2000 N.am      10 UNK        -0.4495 
     23 C          24.3919  -44.9723  -57.1094 C.2       10 UNK         0.4903 
     24 O          23.2074  -44.6341  -57.1401 O.2       10 UNK        -0.4860 
     25 CA         24.7491  -46.4663  -56.9613 C.3       9 UNK         0.0227 
     26 CB         23.7431  -47.3811  -57.6900 C.3       9 UNK        -0.1964 
     27 N          26.1219  -46.8153  -57.3521 N.am      9 UNK        -0.4231 
     28 C          26.7113  -46.6386  -58.5459 C.2       9 UNK         0.5014 
     29 O          26.1800  -46.0707  -59.5021 O.2       9 UNK        -0.5270 
     30 CA         28.1423  -47.1836  -58.6902 C.3       8 UNK         0.0284 
     31 CB         29.1593  -46.2195  -58.0553 C.3       8 UNK        -0.1977 
     32 N          28.3024  -48.5187  -58.1081 N.am      8 UNK        -0.4342 
     33 C          27.7054  -49.6319  -58.5601 C.2       8 UNK         0.5039 
     34 O          26.9747  -49.6684  -59.5507 O.2       8 UNK        -0.5547 
     35 CA         27.9620  -50.9246  -57.7706 C.3       7 UNK         0.0281 
     36 CB         29.3149  -51.5469  -58.1555 C.3       7 UNK        -0.1963 
     37 N          27.9184  -50.6845  -56.3278 N.am      7 UNK        -0.4444 
     38 C          26.7928  -50.6530  -55.6009 C.2       7 UNK         0.5104 
     39 O          25.6757  -50.8999  -56.0560 O.2       7 UNK        -0.5100 
     40 CA         26.9285  -50.2796  -54.1128 C.3       6 UNK         0.0396 
     41 CB         27.0511  -51.5459  -53.2513 C.3       6 UNK        -0.1801 
     42 N          28.0605  -49.3902  -53.8359 N.am      6 UNK        -0.4747 
     43 C          28.1259  -48.1101  -54.2371 C.2       6 UNK         0.5012 
     44 O          27.2339  -47.5563  -54.8783 O.2       6 UNK        -0.5003 
     45 CA         29.4278  -47.3347  -53.9352 C.3       5 UNK         0.0782 
     46 C46        29.3686  -46.6501  -52.5459 C.3       11 UNK        -0.0868 
     47 S47        28.2973  -45.1711  -52.5237 S.3       11 UNK        -0.2515 
     48 C48        29.5099  -43.8169  -52.6251 C.3       11 UNK         0.0199 
     49 N          30.6314  -48.1637  -54.0629 N.am      5 UNK        -0.4607 
     50 C          30.9612  -48.9141  -55.1231 C.2       4 UNK         0.5031 
     51 O          30.3445  -48.8904  -56.1873 O.2       4 UNK        -0.5119 
     52 CA         32.1202  -49.9136  -54.9566 C.3       4 UNK         0.0263 
     53 CB         33.3853  -49.3884  -55.6499 C.3       4 UNK        -0.1967 
     54 N          32.4320  -50.2544  -53.5630 N.am      4 UNK        -0.4237 
     55 C          31.5988  -50.8099  -52.6708 C.2       3 UNK         0.4908 
     56 O          30.4383  -51.1271  -52.9342 O.2       3 UNK        -0.5102 
     57 CA         32.1113  -50.9852  -51.2266 C.3       3 UNK         0.0241 
     58 CB         32.8490  -52.3276  -51.0545 C.3       3 UNK        -0.1971 
     59 N          32.9033  -49.8480  -50.7233 N.am      3 UNK        -0.4139 
     60 C          34.1073  -49.4270  -51.1364 C.2       2 UNK         0.5016 
     61 O          34.7909  -50.0138  -51.9787 O.2       2 UNK        -0.5319 
     62 CA         34.6100  -48.0911  -50.5602 C.3       2 UNK         0.0286 
     63 CB         35.6804  -48.3329  -49.4843 C.3       2 UNK        -0.1963 
     64 N          35.1671  -47.2378  -51.6154 N.am      2 UNK        -0.4790 
     65 C          34.4790  -46.7817  -52.6745 C.2       1 UNK         0.5024 
     66 O          33.2636  -46.9446  -52.8049 O.2       1 UNK        -0.4888 
     67 H67        39.3685  -47.5964  -52.8980 H         1 UNK         0.0892 
     68 H68        39.6106  -46.8734  -54.4904 H         1 UNK         0.0892 
     69 H69        39.2142  -45.8510  -53.1084 H         1 UNK         0.0892 
     70 H70        37.0780  -45.1837  -53.1336 H         1 UNK         0.3107 
     71 H71        35.0727  -46.6339  -54.6794 H         1 UNK         0.0773 
     72 H72        33.7474  -44.4282  -53.5283 H         1 UNK         0.0680 
     73 H73        35.3662  -43.8489  -53.6241 H         1 UNK         0.0680 
     74 H74        32.8738  -46.0827  -55.6684 H         1 UNK         0.0650 
     75 H75        32.8339  -45.3064  -57.2271 H         1 UNK         0.0650 
     76 H76        31.6254  -45.1123  -53.7469 H         1 UNK         0.1397 
     77 H77        28.6255  -42.1808  -54.6225 H         1 UNK         0.1363 
     78 H78        31.5049  -43.2684  -57.6110 H         1 UNK         0.1355 
     79 H79        30.1271  -41.2744  -57.8950 H         1 UNK         0.0707 
     80 H80        29.0029  -40.7536  -56.6702 H         1 UNK         0.0707 
     81 H81        26.7706  -42.0092  -56.1276 H         1 UNK         0.1034 
     82 H82        26.3985  -40.8229  -57.3428 H         1 UNK         0.1034 
     83 H83        24.4814  -42.2887  -56.8993 H         1 UNK         0.0482 
     84 H84        25.2453  -44.2703  -59.6903 H         1 UNK         0.3460 
     85 H85        24.5334  -43.1733  -60.8539 H         1 UNK         0.3460 
     86 H86        26.3507  -44.4636  -57.1860 H         1 UNK         0.2989 
     87 H87        24.6804  -46.6847  -55.8948 H         1 UNK         0.0559 
     88 H88        22.7311  -47.2387  -57.3093 H         1 UNK         0.0848 
     89 H89        23.7197  -47.1805  -58.7617 H         1 UNK         0.0848 
     90 H90        23.9937  -48.4332  -57.5515 H         1 UNK         0.0848 
     91 H91        26.6705  -47.2329  -56.6018 H         1 UNK         0.3144 
     92 H92        28.3644  -47.2590  -59.7566 H         1 UNK         0.0727 
     93 H93        28.9718  -46.0696  -56.9919 H         1 UNK         0.0790 
     94 H94        29.1163  -45.2399  -58.5326 H         1 UNK         0.0790 
     95 H95        30.1800  -46.5865  -58.1646 H         1 UNK         0.0790 
     96 H96        28.9531  -48.6046  -57.3289 H         1 UNK         0.3215 
     97 H97        27.1794  -51.6393  -58.0358 H         1 UNK         0.0863 
     98 H98        29.3484  -51.7692  -59.2229 H         1 UNK         0.0808 
     99 H99        30.1509  -50.8820  -57.9374 H         1 UNK         0.0808 
    100 H100       29.4849  -52.4838  -57.6248 H         1 UNK         0.0808 
    101 H101       28.7862  -50.4148  -55.8839 H         1 UNK         0.3118 
    102 H102       26.0141  -49.7590  -53.8199 H         1 UNK         0.0546 
    103 H103       26.1918  -52.2017  -53.3979 H         1 UNK         0.0828 
    104 H104       27.0950  -51.3026  -52.1897 H         1 UNK         0.0828 
    105 H105       27.9443  -52.1197  -53.5011 H         1 UNK         0.0828 
    106 H106       28.8593  -49.8041  -53.3654 H         1 UNK         0.3005 
    107 H107       29.5106  -46.5638  -54.7024 H         1 UNK         0.1257 
    108 H108       30.3679  -46.3559  -52.2226 H         1 UNK         0.0775 
    109 H109       29.0173  -47.3467  -51.7820 H         1 UNK         0.0775 
    110 H110       29.0227  -42.8904  -52.3174 H         1 UNK         0.0840 
    111 H111       30.3171  -43.9817  -51.9096 H         1 UNK         0.0840 
    112 H112       31.2413  -48.1993  -53.2580 H         1 UNK         0.2987 
    113 H113       31.8161  -50.8365  -55.4544 H         1 UNK         0.0785 
    114 H114       33.1902  -49.1526  -56.6971 H         1 UNK         0.0798 
    115 H115       34.1872  -50.1267  -55.6277 H         1 UNK         0.0798 
    116 H116       33.7536  -48.4813  -55.1739 H         1 UNK         0.0798 
    117 H117       33.3742  -50.0500  -53.2380 H         1 UNK         0.3079 
    118 H118       31.2247  -51.0230  -50.5913 H         1 UNK         0.0794 
    119 H119       32.1978  -53.1626  -51.3167 H         1 UNK         0.0786 
    120 H120       33.1661  -52.4760  -50.0223 H         1 UNK         0.0786 
    121 H121       33.7319  -52.3978  -51.6902 H         1 UNK         0.0786 
    122 H122       32.4251  -49.2803  -50.0367 H         1 UNK         0.3032 
    123 H123       33.7709  -47.5574  -50.1081 H         1 UNK         0.1094 
    124 H124       36.0209  -47.3956  -49.0437 H         1 UNK         0.0794 
    125 H125       35.2868  -48.9468  -48.6729 H         1 UNK         0.0794 
    126 H126       36.5510  -48.8499  -49.8906 H         1 UNK         0.0794 
    127 H127       36.1657  -47.0946  -51.6032 H         1 UNK         0.3016 
@<TRIPOS>BOND
     1    1    2 1    
     2    1   67 1    
     3    1   68 1    
     4    1   69 1    
     5    2    3 2    
     6    2    4 am   BACKBONE|DICT|INTERRES
     7    4    5 1    
     8    4   70 1    
     9    5    6 1    
    10    5   65 1    
    11    5   71 1    
    12    6    7 1    
    13    6   72 1    
    14    6   73 1    
    15    7    8 1    
    16    8    9 1    
    17    8   74 1    
    18    8   75 1    
    19    9   10 ar   
    20    9   14 ar   
    21   10   11 ar   
    22   10   76 1    
    23   11   12 ar   
    24   11   48 1    
    25   12   13 ar   
    26   12   77 1    
    27   13   14 ar   
    28   13   15 1    
    29   14   78 1    
    30   15   16 1    
    31   15   79 1    
    32   15   80 1    
    33   16   17 1    
    34   17   18 1    
    35   17   81 1    
    36   17   82 1    
    37   18   19 1    
    38   18   22 1    
    39   18   83 1    
    40   19   20 am   BACKBONE|DICT|INTERRES
    41   19   21 2    
    42   20   84 1    
    43   20   85 1    
    44   22   23 am   BACKBONE|DICT|INTERRES
    45   22   86 1    
    46   23   24 2    
    47   23   25 1    
    48   25   26 1    
    49   25   27 1    
    50   25   87 1    
    51   26   88 1    
    52   26   89 1    
    53   26   90 1    
    54   27   28 am   BACKBONE|DICT|INTERRES
    55   27   91 1    
    56   28   29 2    
    57   28   30 1    
    58   30   31 1    
    59   30   32 1    
    60   30   92 1    
    61   31   93 1    
    62   31   94 1    
    63   31   95 1    
    64   32   33 am   BACKBONE|DICT|INTERRES
    65   32   96 1    
    66   33   34 2    
    67   33   35 1    
    68   35   36 1    
    69   35   37 1    
    70   35   97 1    
    71   36   98 1    
    72   36   99 1    
    73   36  100 1    
    74   37   38 am   BACKBONE|DICT|INTERRES
    75   37  101 1    
    76   38   39 2    
    77   38   40 1    
    78   40   41 1    
    79   40   42 1    
    80   40  102 1    
    81   41  103 1    
    82   41  104 1    
    83   41  105 1    
    84   42   43 am   BACKBONE|DICT|INTERRES
    85   42  106 1    
    86   43   44 2    
    87   43   45 1    
    88   45   46 1    
    89   45   49 1    
    90   45  107 1    
    91   46   47 1    
    92   46  108 1    
    93   46  109 1    
    94   47   48 1    
    95   48  110 1    
    96   48  111 1    
    97   49   50 am   BACKBONE|DICT|INTERRES
    98   49  112 1    
    99   50   51 2    
   100   50   52 1    
   101   52   53 1    
   102   52   54 1    
   103   52  113 1    
   104   53  114 1    
   105   53  115 1    
   106   53  116 1    
   107   54   55 am   BACKBONE|DICT|INTERRES
   108   54  117 1    
   109   55   56 2    
   110   55   57 1    
   111   57   58 1    
   112   57   59 1    
   113   57  118 1    
   114   58  119 1    
   115   58  120 1    
   116   58  121 1    
   117   59   60 am   BACKBONE|DICT|INTERRES
   118   59  122 1    
   119   60   61 2    
   120   60   62 1    
   121   62   63 1    
   122   62   64 1    
   123   62  123 1    
   124   63  124 1    
   125   63  125 1    
   126   63  126 1    
   127   64   65 am   BACKBONE|DICT|INTERRES
   128   64  127 1    
   129   65   66 2    
@<TRIPOS>SUBSTRUCTURE
     1 UNK         1 GROUP             0       ****    0 ROOT    
