@<TRIPOS>MOLECULE
3R134
127   129    1
SMALL
USER_CHARGES


@<TRIPOS>ATOM
      1 CA         33.0282  -46.9061  -58.1111 C.3       0 UNK        -0.1968 
      2 C          33.2351  -46.8119  -56.6075 C.2       0 UNK         0.4852 
      3 O          33.3606  -47.8473  -55.9543 O.2       0 UNK        -0.5359 
      4 N          33.3021  -45.5843  -56.0675 N.am      1 UNK        -0.4300 
      5 CA         33.4469  -45.2379  -54.6416 C.3       1 UNK         0.0863 
      6 C6         33.7316  -43.7258  -54.4314 C.3       11 UNK        -0.0953 
      7 S7         32.5942  -42.6109  -55.3175 S.3       11 UNK        -0.2369 
      8 C8         31.6000  -41.9271  -53.9562 C.3       11 UNK         0.0226 
      9 C9         30.6134  -42.9486  -53.4141 C.ar      11 UNK        -0.0699 
     10 C10        30.7494  -43.4593  -52.1202 C.ar      11 UNK        -0.0804 
     11 C11        29.8221  -44.3800  -51.6203 C.ar      11 UNK        -0.0871 
     12 C12        28.7640  -44.8021  -52.4332 C.ar      11 UNK        -0.1008 
     13 C13        28.6404  -44.3214  -53.7402 C.ar      11 UNK        -0.0735 
     14 C14        29.5523  -43.3761  -54.2140 C.ar      11 UNK        -0.0945 
     15 C15        27.5268  -44.8193  -54.6475 C.3       11 UNK         0.0169 
     16 S16        27.9614  -46.3886  -55.4674 S.3       11 UNK        -0.2669 
     17 C17        29.3729  -45.9281  -56.5343 C.3       11 UNK        -0.0850 
     18 CA         28.9342  -45.1941  -57.8348 C.3       10 UNK         0.0855 
     19 C          30.1366  -44.6183  -58.6433 C.2       10 UNK         0.5543 
     20 N          30.0635  -44.5387  -59.9660 N.am      10 UNK        -0.7343 
     21 O          31.1385  -44.2068  -58.0659 O.2       10 UNK        -0.5027 
     22 N          27.9623  -45.9704  -58.6266 N.am      10 UNK        -0.4495 
     23 C          28.1845  -47.1396  -59.2427 C.2       10 UNK         0.4903 
     24 O          29.2815  -47.6991  -59.2623 O.2       10 UNK        -0.4860 
     25 CA         26.9873  -47.8080  -59.9530 C.3       9 UNK         0.0227 
     26 CB         27.0279  -49.3406  -59.8080 C.3       9 UNK        -0.1964 
     27 N          25.6840  -47.3343  -59.4776 N.am      9 UNK        -0.4231 
     28 C          25.0347  -46.2364  -59.8771 C.2       9 UNK         0.5014 
     29 O          25.4815  -45.4505  -60.7124 O.2       9 UNK        -0.5270 
     30 CA         23.6736  -45.9406  -59.2150 C.3       8 UNK         0.0284 
     31 CB         22.5517  -46.7693  -59.8713 C.3       8 UNK        -0.1977 
     32 N          23.6485  -46.0697  -57.7464 N.am      8 UNK        -0.4342 
     33 C          23.8271  -47.1662  -56.9966 C.2       8 UNK         0.5039 
     34 O          24.0685  -48.2885  -57.4537 O.2       8 UNK        -0.5547 
     35 CA         23.7310  -46.9848  -55.4784 C.3       7 UNK         0.0281 
     36 CB         22.2722  -47.0633  -54.9961 C.3       7 UNK        -0.1963 
     37 N          24.5165  -48.0505  -54.8693 N.am      7 UNK        -0.4444 
     38 C          25.1839  -47.9737  -53.7158 C.2       7 UNK         0.5104 
     39 O          25.1034  -47.0152  -52.9446 O.2       7 UNK        -0.5100 
     40 CA         26.1329  -49.1333  -53.3701 C.3       6 UNK         0.0396 
     41 CB         26.3440  -50.1545  -54.5120 C.3       6 UNK        -0.1801 
     42 N          27.4116  -48.5497  -52.9767 N.am      6 UNK        -0.4747 
     43 C          28.3344  -49.1286  -52.2057 C.2       6 UNK         0.5012 
     44 O          28.2168  -50.2586  -51.7240 O.2       6 UNK        -0.5003 
     45 CA         29.5912  -48.2949  -51.8925 C.3       5 UNK         0.0782 
     46 C46        29.4826  -47.6730  -50.4800 C.3       11 UNK        -0.0868 
     47 S47        30.8315  -46.4958  -50.1307 S.3       11 UNK        -0.2515 
     48 C48        29.9597  -44.8974  -50.1953 C.3       11 UNK         0.0199 
     49 N          30.7713  -49.1487  -52.0296 N.am      5 UNK        -0.4607 
     50 C          31.3305  -49.4585  -53.2028 C.2       4 UNK         0.5031 
     51 O          30.9958  -48.9600  -54.2781 O.2       4 UNK        -0.5119 
     52 CA         32.3903  -50.5617  -53.1760 C.3       4 UNK         0.0263 
     53 CB         31.7352  -51.9205  -53.5026 C.3       4 UNK        -0.1967 
     54 N          33.4502  -50.2452  -54.1315 N.am      4 UNK        -0.4237 
     55 C          34.6248  -50.8847  -54.2112 C.2       3 UNK         0.4908 
     56 O          34.9425  -51.8354  -53.4951 O.2       3 UNK        -0.5102 
     57 CA         35.6322  -50.3597  -55.2410 C.3       3 UNK         0.0241 
     58 CB         35.1602  -50.6240  -56.6818 C.3       3 UNK        -0.1971 
     59 N          35.8710  -48.9318  -55.0368 N.am      3 UNK        -0.4139 
     60 C          36.7666  -48.4358  -54.1709 C.2       2 UNK         0.5016 
     61 O          37.5216  -49.1366  -53.4951 O.2       2 UNK        -0.5319 
     62 CA         36.8683  -46.9058  -54.0373 C.3       2 UNK         0.0286 
     63 CB         38.1270  -46.3880  -54.7533 C.3       2 UNK        -0.1963 
     64 N          35.7026  -46.1903  -54.5588 N.am      2 UNK        -0.4790 
     65 C          34.5409  -46.0422  -53.9056 C.2       1 UNK         0.5024 
     66 O          34.3214  -46.4991  -52.7836 O.2       1 UNK        -0.4888 
     67 H67        33.7350  -47.6132  -58.5443 H         1 UNK         0.0892 
     68 H68        32.0194  -47.2563  -58.3290 H         1 UNK         0.0892 
     69 H69        33.1712  -45.9441  -58.6024 H         1 UNK         0.0892 
     70 H70        33.1384  -44.7878  -56.6708 H         1 UNK         0.3107 
     71 H71        32.4926  -45.4777  -54.1674 H         1 UNK         0.0773 
     72 H72        33.7114  -43.4834  -53.3670 H         1 UNK         0.0680 
     73 H73        34.7379  -43.4754  -54.7735 H         1 UNK         0.0680 
     74 H74        31.0469  -41.0633  -54.3276 H         1 UNK         0.0650 
     75 H75        32.2582  -41.5535  -53.1704 H         1 UNK         0.0650 
     76 H76        31.5707  -43.1319  -51.4973 H         1 UNK         0.1397 
     77 H77        28.0408  -45.5108  -52.0548 H         1 UNK         0.1363 
     78 H78        29.4550  -42.9894  -55.2195 H         1 UNK         0.1355 
     79 H79        27.2786  -44.0697  -55.3998 H         1 UNK         0.0707 
     80 H80        26.6184  -44.9678  -54.0620 H         1 UNK         0.0707 
     81 H81        29.9150  -46.8419  -56.7825 H         1 UNK         0.1034 
     82 H82        30.0790  -45.3312  -55.9575 H         1 UNK         0.1034 
     83 H83        28.3893  -44.3028  -57.5242 H         1 UNK         0.0482 
     84 H84        30.8389  -44.1529  -60.4808 H         1 UNK         0.3460 
     85 H85        29.2433  -44.8643  -60.4517 H         1 UNK         0.3460 
     86 H86        27.0385  -45.5716  -58.6982 H         1 UNK         0.2989 
     87 H87        27.0768  -47.5700  -61.0147 H         1 UNK         0.0559 
     88 H88        26.9829  -49.6452  -58.7614 H         1 UNK         0.0848 
     89 H89        27.9444  -49.7548  -60.2303 H         1 UNK         0.0848 
     90 H90        26.1948  -49.8114  -60.3302 H         1 UNK         0.0848 
     91 H91        25.2250  -47.8901  -58.7550 H         1 UNK         0.3144 
     92 H92        23.4568  -44.8903  -59.4171 H         1 UNK         0.0727 
     93 H93        21.5745  -46.5003  -59.4704 H         1 UNK         0.0790 
     94 H94        22.6913  -47.8404  -59.7216 H         1 UNK         0.0790 
     95 H95        22.5188  -46.5956  -60.9478 H         1 UNK         0.0790 
     96 H96        23.4802  -45.2008  -57.2567 H         1 UNK         0.3215 
     97 H97        24.1606  -46.0161  -55.2123 H         1 UNK         0.0863 
     98 H98        22.2058  -46.9433  -53.9146 H         1 UNK         0.0808 
     99 H99        21.8141  -48.0187  -55.2554 H         1 UNK         0.0808 
    100 H100       21.6663  -46.2765  -55.4469 H         1 UNK         0.0808 
    101 H101       24.6699  -48.8374  -55.4892 H         1 UNK         0.3118 
    102 H102       25.6989  -49.6501  -52.5119 H         1 UNK         0.0546 
    103 H103       25.4078  -50.6373  -54.7946 H         1 UNK         0.0828 
    104 H104       27.0251  -50.9500  -54.2094 H         1 UNK         0.0828 
    105 H105       26.7654  -49.6850  -55.4023 H         1 UNK         0.0828 
    106 H106       27.5686  -47.6139  -53.3309 H         1 UNK         0.3005 
    107 H107       29.6651  -47.4866  -52.6245 H         1 UNK         0.1257 
    108 H108       29.5076  -48.4528  -49.7162 H         1 UNK         0.0775 
    109 H109       28.5235  -47.1683  -50.3518 H         1 UNK         0.0775 
    110 H110       28.9800  -44.9768  -49.7218 H         1 UNK         0.0840 
    111 H111       30.5184  -44.1783  -49.5941 H         1 UNK         0.0840 
    112 H112       31.0697  -49.6297  -51.1939 H         1 UNK         0.2987 
    113 H113       32.8307  -50.6022  -52.1773 H         1 UNK         0.0785 
    114 H114       32.4360  -52.7476  -53.3932 H         1 UNK         0.0798 
    115 H115       31.3482  -51.9416  -54.5222 H         1 UNK         0.0798 
    116 H116       30.8979  -52.1221  -52.8327 H         1 UNK         0.0798 
    117 H117       33.2609  -49.4519  -54.7439 H         1 UNK         0.3079 
    118 H118       36.5697  -50.9029  -55.1012 H         1 UNK         0.0794 
    119 H119       35.0224  -51.6924  -56.8530 H         1 UNK         0.0786 
    120 H120       35.8931  -50.2719  -57.4078 H         1 UNK         0.0786 
    121 H121       34.2107  -50.1369  -56.9037 H         1 UNK         0.0786 
    122 H122       35.2121  -48.2985  -55.4794 H         1 UNK         0.3032 
    123 H123       36.9665  -46.6830  -52.9721 H         1 UNK         0.1094 
    124 H124       38.0902  -46.5805  -55.8263 H         1 UNK         0.0794 
    125 H125       38.2542  -45.3151  -54.6073 H         1 UNK         0.0794 
    126 H126       39.0243  -46.8734  -54.3663 H         1 UNK         0.0794 
    127 H127       35.7878  -45.7871  -55.4812 H         1 UNK         0.3016 
@<TRIPOS>BOND
     1    1    2 1    
     2    1   67 1    
     3    1   68 1    
     4    1   69 1    
     5    2    3 2    
     6    2    4 am   BACKBONE|DICT|INTERRES
     7    4    5 1    
     8    4   70 1    
     9    5    6 1    
    10    5   65 1    
    11    5   71 1    
    12    6    7 1    
    13    6   72 1    
    14    6   73 1    
    15    7    8 1    
    16    8    9 1    
    17    8   74 1    
    18    8   75 1    
    19    9   10 ar   
    20    9   14 ar   
    21   10   11 ar   
    22   10   76 1    
    23   11   12 ar   
    24   11   48 1    
    25   12   13 ar   
    26   12   77 1    
    27   13   14 ar   
    28   13   15 1    
    29   14   78 1    
    30   15   16 1    
    31   15   79 1    
    32   15   80 1    
    33   16   17 1    
    34   17   18 1    
    35   17   81 1    
    36   17   82 1    
    37   18   19 1    
    38   18   22 1    
    39   18   83 1    
    40   19   20 am   BACKBONE|DICT|INTERRES
    41   19   21 2    
    42   20   84 1    
    43   20   85 1    
    44   22   23 am   BACKBONE|DICT|INTERRES
    45   22   86 1    
    46   23   24 2    
    47   23   25 1    
    48   25   26 1    
    49   25   27 1    
    50   25   87 1    
    51   26   88 1    
    52   26   89 1    
    53   26   90 1    
    54   27   28 am   BACKBONE|DICT|INTERRES
    55   27   91 1    
    56   28   29 2    
    57   28   30 1    
    58   30   31 1    
    59   30   32 1    
    60   30   92 1    
    61   31   93 1    
    62   31   94 1    
    63   31   95 1    
    64   32   33 am   BACKBONE|DICT|INTERRES
    65   32   96 1    
    66   33   34 2    
    67   33   35 1    
    68   35   36 1    
    69   35   37 1    
    70   35   97 1    
    71   36   98 1    
    72   36   99 1    
    73   36  100 1    
    74   37   38 am   BACKBONE|DICT|INTERRES
    75   37  101 1    
    76   38   39 2    
    77   38   40 1    
    78   40   41 1    
    79   40   42 1    
    80   40  102 1    
    81   41  103 1    
    82   41  104 1    
    83   41  105 1    
    84   42   43 am   BACKBONE|DICT|INTERRES
    85   42  106 1    
    86   43   44 2    
    87   43   45 1    
    88   45   46 1    
    89   45   49 1    
    90   45  107 1    
    91   46   47 1    
    92   46  108 1    
    93   46  109 1    
    94   47   48 1    
    95   48  110 1    
    96   48  111 1    
    97   49   50 am   BACKBONE|DICT|INTERRES
    98   49  112 1    
    99   50   51 2    
   100   50   52 1    
   101   52   53 1    
   102   52   54 1    
   103   52  113 1    
   104   53  114 1    
   105   53  115 1    
   106   53  116 1    
   107   54   55 am   BACKBONE|DICT|INTERRES
   108   54  117 1    
   109   55   56 2    
   110   55   57 1    
   111   57   58 1    
   112   57   59 1    
   113   57  118 1    
   114   58  119 1    
   115   58  120 1    
   116   58  121 1    
   117   59   60 am   BACKBONE|DICT|INTERRES
   118   59  122 1    
   119   60   61 2    
   120   60   62 1    
   121   62   63 1    
   122   62   64 1    
   123   62  123 1    
   124   63  124 1    
   125   63  125 1    
   126   63  126 1    
   127   64   65 am   BACKBONE|DICT|INTERRES
   128   64  127 1    
   129   65   66 2    
@<TRIPOS>SUBSTRUCTURE
     1 UNK         1 GROUP             0       ****    0 ROOT    
