@<TRIPOS>MOLECULE
3R134
127   129    1
SMALL
USER_CHARGES


@<TRIPOS>ATOM
      1 CA         32.8347  -50.1016  -58.4040 C.3       0 UNK        -0.1968 
      2 C          33.4793  -48.7330  -58.5967 C.2       0 UNK         0.4852 
      3 O          34.0815  -48.5005  -59.6435 O.2       0 UNK        -0.5359 
      4 N          33.3775  -47.7894  -57.6495 N.am      1 UNK        -0.4300 
      5 CA         32.8059  -47.8935  -56.3019 C.3       1 UNK         0.0863 
      6 C6         32.5457  -46.4981  -55.6642 C.3       11 UNK        -0.0953 
      7 S7         33.8710  -45.2704  -55.9502 S.3       11 UNK        -0.2369 
      8 C8         33.5704  -44.0852  -54.6008 C.3       11 UNK         0.0226 
      9 C9         32.1850  -43.4453  -54.6365 C.ar      11 UNK        -0.0699 
     10 C10        31.4639  -43.3083  -53.4481 C.ar      11 UNK        -0.0804 
     11 C11        30.2049  -42.7009  -53.4411 C.ar      11 UNK        -0.0871 
     12 C12        29.6729  -42.2096  -54.6369 C.ar      11 UNK        -0.1008 
     13 C13        30.3809  -42.3380  -55.8358 C.ar      11 UNK        -0.0735 
     14 C14        31.6363  -42.9553  -55.8278 C.ar      11 UNK        -0.0945 
     15 C15        29.8159  -41.7730  -57.1332 C.3       11 UNK         0.0169 
     16 S16        28.6006  -42.8867  -57.9114 S.3       11 UNK        -0.2669 
     17 C17        27.0575  -42.4536  -57.0328 C.3       11 UNK        -0.0850 
     18 CA         26.6052  -43.5646  -56.0428 C.3       10 UNK         0.0855 
     19 C          25.5329  -43.0766  -55.0229 C.2       10 UNK         0.5543 
     20 N          24.5884  -43.9104  -54.6052 N.am      10 UNK        -0.7343 
     21 O          25.5827  -41.9379  -54.5653 O.2       10 UNK        -0.5027 
     22 N          26.3001  -44.8453  -56.7033 N.am      10 UNK        -0.4495 
     23 C          25.3257  -45.0913  -57.5909 C.2       10 UNK         0.4903 
     24 O          24.5150  -44.2462  -57.9728 O.2       10 UNK        -0.4860 
     25 CA         25.2346  -46.5394  -58.1208 C.3       9 UNK         0.0227 
     26 CB         24.4270  -46.6581  -59.4310 C.3       9 UNK        -0.1964 
     27 N          26.5495  -47.1832  -58.2388 N.am      9 UNK        -0.4231 
     28 C          27.5732  -46.8025  -59.0213 C.2       9 UNK         0.5014 
     29 O          27.4792  -45.9449  -59.9001 O.2       9 UNK        -0.5270 
     30 CA         28.9467  -47.4531  -58.7674 C.3       8 UNK         0.0284 
     31 CB         29.9901  -46.3667  -58.4577 C.3       8 UNK        -0.1977 
     32 N          28.9144  -48.4060  -57.6523 N.am      8 UNK        -0.4342 
     33 C          28.9075  -49.7407  -57.7828 C.2       8 UNK         0.5039 
     34 O          29.0443  -50.3222  -58.8591 O.2       8 UNK        -0.5547 
     35 CA         28.6817  -50.5806  -56.5090 C.3       7 UNK         0.0281 
     36 CB         30.0056  -51.1380  -55.9634 C.3       7 UNK        -0.1963 
     37 N          27.9863  -49.8550  -55.4428 N.am      7 UNK        -0.4444 
     38 C          26.7107  -49.4483  -55.5123 C.2       7 UNK         0.5104 
     39 O          25.9816  -49.6549  -56.4814 O.2       7 UNK        -0.5100 
     40 CA         26.1689  -48.6127  -54.3408 C.3       6 UNK         0.0396 
     41 CB         25.4297  -49.5141  -53.3401 C.3       6 UNK        -0.1801 
     42 N          27.1851  -47.8327  -53.6288 N.am      6 UNK        -0.4747 
     43 C          27.9928  -46.9072  -54.1694 C.2       6 UNK         0.5012 
     44 O          28.0280  -46.6466  -55.3730 O.2       6 UNK        -0.5003 
     45 CA         28.9407  -46.1874  -53.1919 C.3       5 UNK         0.0782 
     46 C46        28.1684  -45.0592  -52.4596 C.3       11 UNK        -0.0868 
     47 S47        29.2007  -44.1376  -51.2725 S.3       11 UNK        -0.2515 
     48 C48        29.4326  -42.5495  -52.1368 C.3       11 UNK         0.0199 
     49 N          29.5643  -47.1269  -52.2498 N.am      5 UNK        -0.4607 
     50 C          30.3294  -48.1739  -52.5816 C.2       4 UNK         0.5031 
     51 O          30.6272  -48.4776  -53.7385 O.2       4 UNK        -0.5119 
     52 CA         30.7812  -49.0663  -51.4248 C.3       4 UNK         0.0263 
     53 CB         29.6551  -50.0476  -51.0420 C.3       4 UNK        -0.1967 
     54 N          31.9787  -49.8018  -51.8224 N.am      4 UNK        -0.4237 
     55 C          32.8185  -50.4148  -50.9783 C.2       3 UNK         0.4908 
     56 O          32.6822  -50.4124  -49.7540 O.2       3 UNK        -0.5102 
     57 CA         34.0091  -51.1676  -51.5918 C.3       3 UNK         0.0241 
     58 CB         33.6011  -52.6009  -51.9702 C.3       3 UNK        -0.1971 
     59 N          34.5650  -50.4987  -52.7670 N.am      3 UNK        -0.4139 
     60 C          35.3307  -49.4017  -52.7427 C.2       2 UNK         0.5016 
     61 O          35.6530  -48.8112  -51.7115 O.2       2 UNK        -0.5319 
     62 CA         35.8378  -48.8826  -54.1007 C.3       2 UNK         0.0286 
     63 CB         36.5940  -49.9706  -54.8918 C.3       2 UNK        -0.1963 
     64 N          34.7970  -48.2577  -54.9263 N.am      2 UNK        -0.4790 
     65 C          33.6762  -48.8051  -55.4174 C.2       1 UNK         0.5024 
     66 O          33.3373  -49.9747  -55.2320 O.2       1 UNK        -0.4888 
     67 H67        31.8720  -50.0275  -57.9054 H         1 UNK         0.0892 
     68 H68        32.6611  -50.5776  -59.3690 H         1 UNK         0.0892 
     69 H69        33.4854  -50.7533  -57.8216 H         1 UNK         0.0892 
     70 H70        33.8179  -46.8981  -57.8300 H         1 UNK         0.3107 
     71 H71        31.8307  -48.3751  -56.3817 H         1 UNK         0.0773 
     72 H72        32.3592  -46.5866  -54.5923 H         1 UNK         0.0680 
     73 H73        31.6281  -46.0784  -56.0757 H         1 UNK         0.0680 
     74 H74        34.3195  -43.2949  -54.6586 H         1 UNK         0.0650 
     75 H75        33.7350  -44.5983  -53.6520 H         1 UNK         0.0650 
     76 H76        31.8823  -43.6732  -52.5198 H         1 UNK         0.1397 
     77 H77        28.7095  -41.7191  -54.6344 H         1 UNK         0.1363 
     78 H78        32.1932  -43.0454  -56.7503 H         1 UNK         0.1355 
     79 H79        29.3731  -40.7919  -56.9564 H         1 UNK         0.0707 
     80 H80        30.6256  -41.6060  -57.8452 H         1 UNK         0.0707 
     81 H81        27.2039  -41.5040  -56.5168 H         1 UNK         0.1034 
     82 H82        26.2791  -42.2610  -57.7721 H         1 UNK         0.1034 
     83 H83        27.4680  -43.7915  -55.4187 H         1 UNK         0.0482 
     84 H84        24.5361  -44.8467  -54.9705 H         1 UNK         0.3460 
     85 H85        23.9077  -43.5889  -53.9352 H         1 UNK         0.3460 
     86 H86        26.9130  -45.6086  -56.4302 H         1 UNK         0.2989 
     87 H87        24.6970  -47.1029  -57.3571 H         1 UNK         0.0559 
     88 H88        24.8557  -46.0528  -60.2299 H         1 UNK         0.0848 
     89 H89        23.3997  -46.3211  -59.2877 H         1 UNK         0.0848 
     90 H90        24.3825  -47.6903  -59.7778 H         1 UNK         0.0848 
     91 H91        26.7061  -47.9528  -57.6001 H         1 UNK         0.3144 
     92 H92        29.2412  -47.9538  -59.6918 H         1 UNK         0.0727 
     93 H93        29.7520  -45.8293  -57.5387 H         1 UNK         0.0790 
     94 H94        30.0436  -45.6276  -59.2583 H         1 UNK         0.0790 
     95 H95        30.9843  -46.7941  -58.3581 H         1 UNK         0.0790 
     96 H96        28.7863  -48.0010  -56.7299 H         1 UNK         0.3215 
     97 H97        28.0545  -51.4281  -56.7948 H         1 UNK         0.0863 
     98 H98        29.8381  -51.7977  -55.1120 H         1 UNK         0.0808 
     99 H99        30.6764  -50.3435  -55.6400 H         1 UNK         0.0808 
    100 H100       30.5283  -51.7209  -56.7227 H         1 UNK         0.0808 
    101 H101       28.5324  -49.6013  -54.6305 H         1 UNK         0.3118 
    102 H102       25.4499  -47.9034  -54.7560 H         1 UNK         0.0546 
    103 H103       26.1046  -50.2234  -52.8592 H         1 UNK         0.0828 
    104 H104       24.6497  -50.0928  -53.8374 H         1 UNK         0.0828 
    105 H105       24.9447  -48.9282  -52.5592 H         1 UNK         0.0828 
    106 H106       27.2497  -47.9870  -52.6328 H         1 UNK         0.3005 
    107 H107       29.7376  -45.7377  -53.7892 H         1 UNK         0.1257 
    108 H108       27.3227  -45.4688  -51.9035 H         1 UNK         0.0775 
    109 H109       27.7395  -44.3569  -53.1748 H         1 UNK         0.0775 
    110 H110       28.4562  -42.0929  -52.3085 H         1 UNK         0.0840 
    111 H111       29.9784  -41.8687  -51.4821 H         1 UNK         0.0840 
    112 H112       29.3859  -46.9437  -51.2727 H         1 UNK         0.2987 
    113 H113       31.0242  -48.4299  -50.5712 H         1 UNK         0.0785 
    114 H114       28.7452  -49.5164  -50.7605 H         1 UNK         0.0798 
    115 H115       29.9362  -50.6683  -50.1914 H         1 UNK         0.0798 
    116 H116       29.4036  -50.7120  -51.8697 H         1 UNK         0.0798 
    117 H117       32.1569  -49.8126  -52.8201 H         1 UNK         0.3079 
    118 H118       34.7907  -51.2262  -50.8311 H         1 UNK         0.0794 
    119 H119       33.1977  -53.1328  -51.1073 H         1 UNK         0.0786 
    120 H120       34.4554  -53.1735  -52.3318 H         1 UNK         0.0786 
    121 H121       32.8360  -52.6122  -52.7477 H         1 UNK         0.0786 
    122 H122       34.2745  -50.8376  -53.6779 H         1 UNK         0.3032 
    123 H123       36.5569  -48.0928  -53.8755 H         1 UNK         0.1094 
    124 H124       37.0693  -49.5508  -55.7783 H         1 UNK         0.0794 
    125 H125       37.3827  -50.4165  -54.2843 H         1 UNK         0.0794 
    126 H126       35.9409  -50.7794  -55.2202 H         1 UNK         0.0794 
    127 H127       34.9463  -47.2779  -55.1355 H         1 UNK         0.3016 
@<TRIPOS>BOND
     1    1    2 1    
     2    1   67 1    
     3    1   68 1    
     4    1   69 1    
     5    2    3 2    
     6    2    4 am   BACKBONE|DICT|INTERRES
     7    4    5 1    
     8    4   70 1    
     9    5    6 1    
    10    5   65 1    
    11    5   71 1    
    12    6    7 1    
    13    6   72 1    
    14    6   73 1    
    15    7    8 1    
    16    8    9 1    
    17    8   74 1    
    18    8   75 1    
    19    9   10 ar   
    20    9   14 ar   
    21   10   11 ar   
    22   10   76 1    
    23   11   12 ar   
    24   11   48 1    
    25   12   13 ar   
    26   12   77 1    
    27   13   14 ar   
    28   13   15 1    
    29   14   78 1    
    30   15   16 1    
    31   15   79 1    
    32   15   80 1    
    33   16   17 1    
    34   17   18 1    
    35   17   81 1    
    36   17   82 1    
    37   18   19 1    
    38   18   22 1    
    39   18   83 1    
    40   19   20 am   BACKBONE|DICT|INTERRES
    41   19   21 2    
    42   20   84 1    
    43   20   85 1    
    44   22   23 am   BACKBONE|DICT|INTERRES
    45   22   86 1    
    46   23   24 2    
    47   23   25 1    
    48   25   26 1    
    49   25   27 1    
    50   25   87 1    
    51   26   88 1    
    52   26   89 1    
    53   26   90 1    
    54   27   28 am   BACKBONE|DICT|INTERRES
    55   27   91 1    
    56   28   29 2    
    57   28   30 1    
    58   30   31 1    
    59   30   32 1    
    60   30   92 1    
    61   31   93 1    
    62   31   94 1    
    63   31   95 1    
    64   32   33 am   BACKBONE|DICT|INTERRES
    65   32   96 1    
    66   33   34 2    
    67   33   35 1    
    68   35   36 1    
    69   35   37 1    
    70   35   97 1    
    71   36   98 1    
    72   36   99 1    
    73   36  100 1    
    74   37   38 am   BACKBONE|DICT|INTERRES
    75   37  101 1    
    76   38   39 2    
    77   38   40 1    
    78   40   41 1    
    79   40   42 1    
    80   40  102 1    
    81   41  103 1    
    82   41  104 1    
    83   41  105 1    
    84   42   43 am   BACKBONE|DICT|INTERRES
    85   42  106 1    
    86   43   44 2    
    87   43   45 1    
    88   45   46 1    
    89   45   49 1    
    90   45  107 1    
    91   46   47 1    
    92   46  108 1    
    93   46  109 1    
    94   47   48 1    
    95   48  110 1    
    96   48  111 1    
    97   49   50 am   BACKBONE|DICT|INTERRES
    98   49  112 1    
    99   50   51 2    
   100   50   52 1    
   101   52   53 1    
   102   52   54 1    
   103   52  113 1    
   104   53  114 1    
   105   53  115 1    
   106   53  116 1    
   107   54   55 am   BACKBONE|DICT|INTERRES
   108   54  117 1    
   109   55   56 2    
   110   55   57 1    
   111   57   58 1    
   112   57   59 1    
   113   57  118 1    
   114   58  119 1    
   115   58  120 1    
   116   58  121 1    
   117   59   60 am   BACKBONE|DICT|INTERRES
   118   59  122 1    
   119   60   61 2    
   120   60   62 1    
   121   62   63 1    
   122   62   64 1    
   123   62  123 1    
   124   63  124 1    
   125   63  125 1    
   126   63  126 1    
   127   64   65 am   BACKBONE|DICT|INTERRES
   128   64  127 1    
   129   65   66 2    
@<TRIPOS>SUBSTRUCTURE
     1 UNK         1 GROUP             0       ****    0 ROOT    
