@<TRIPOS>MOLECULE
3R134
127   129    1
SMALL
USER_CHARGES


@<TRIPOS>ATOM
      1 CA         28.4709  -46.5786  -52.1850 C.3       0 UNK        -0.1968 
      2 C          29.9545  -46.3675  -52.4382 C.2       0 UNK         0.4852 
      3 O          30.4469  -46.7526  -53.4999 O.2       0 UNK        -0.5359 
      4 N          30.6543  -45.7734  -51.4596 N.am      1 UNK        -0.4300 
      5 CA         32.0978  -45.4896  -51.4457 C.3       1 UNK         0.0863 
      6 C6         32.5423  -44.5339  -52.5878 C.3       11 UNK        -0.0953 
      7 S7         31.7049  -42.9139  -52.5441 S.3       11 UNK        -0.2369 
      8 C8         32.7068  -41.9723  -53.7413 C.3       11 UNK         0.0226 
      9 C9         32.5148  -42.4920  -55.1584 C.ar      11 UNK        -0.0699 
     10 C10        33.3068  -43.5405  -55.6342 C.ar      11 UNK        -0.0804 
     11 C11        33.0785  -44.0852  -56.8990 C.ar      11 UNK        -0.0871 
     12 C12        32.0878  -43.5343  -57.7170 C.ar      11 UNK        -0.1008 
     13 C13        31.3090  -42.4651  -57.2646 C.ar      11 UNK        -0.0735 
     14 C14        31.5257  -41.9484  -55.9830 C.ar      11 UNK        -0.0945 
     15 C15        30.2304  -41.8793  -58.1629 C.3       11 UNK         0.0169 
     16 S16        28.6870  -42.8428  -58.0854 S.3       11 UNK        -0.2669 
     17 C17        28.0303  -42.3709  -56.4462 C.3       11 UNK        -0.0850 
     18 CA         28.0080  -43.5510  -55.4291 C.3       10 UNK         0.0855 
     19 C          27.6279  -43.0688  -53.9946 C.2       10 UNK         0.5543 
     20 N          26.7869  -43.7768  -53.2502 N.am      10 UNK        -0.7343 
     21 O          28.1199  -42.0407  -53.5371 O.2       10 UNK        -0.5027 
     22 N          27.2466  -44.7160  -55.9220 N.am      10 UNK        -0.4495 
     23 C          25.9413  -44.7396  -56.2319 C.2       10 UNK         0.4903 
     24 O          25.1796  -43.7812  -56.1030 O.2       10 UNK        -0.4860 
     25 CA         25.3839  -46.0618  -56.7818 C.3       9 UNK         0.0227 
     26 CB         25.4874  -46.0746  -58.3135 C.3       9 UNK        -0.1964 
     27 N          26.0703  -47.2324  -56.2303 N.am      9 UNK        -0.4231 
     28 C          25.8781  -47.7014  -54.9905 C.2       9 UNK         0.5014 
     29 O          25.0739  -47.2080  -54.1972 O.2       9 UNK        -0.5270 
     30 CA         26.7525  -48.8946  -54.5558 C.3       8 UNK         0.0284 
     31 CB         26.2613  -49.5551  -53.2488 C.3       8 UNK        -0.1977 
     32 N          26.9473  -49.8991  -55.6082 N.am      8 UNK        -0.4342 
     33 C          26.0144  -50.6364  -56.2267 C.2       8 UNK         0.5039 
     34 O          24.8071  -50.5796  -55.9859 O.2       8 UNK        -0.5547 
     35 CA         26.5524  -51.6021  -57.3004 C.3       7 UNK         0.0281 
     36 CB         25.4399  -52.3460  -58.0714 C.3       7 UNK        -0.1963 
     37 N          27.4892  -50.9344  -58.2145 N.am      7 UNK        -0.4444 
     38 C          27.2174  -49.9315  -59.0644 C.2       7 UNK         0.5104 
     39 O          26.0920  -49.4701  -59.2549 O.2       7 UNK        -0.5100 
     40 CA         28.4327  -49.3362  -59.8059 C.3       6 UNK         0.0396 
     41 CB         28.0930  -48.0718  -60.6209 C.3       6 UNK        -0.1801 
     42 N          29.5792  -49.0837  -58.9225 N.am      6 UNK        -0.4747 
     43 C          29.5942  -48.3411  -57.8035 C.2       6 UNK         0.5012 
     44 O          28.6182  -47.7349  -57.3546 O.2       6 UNK        -0.5003 
     45 CA         30.9339  -48.2854  -57.0442 C.3       5 UNK         0.0782 
     46 C46        31.5487  -46.8727  -57.1518 C.3       11 UNK        -0.0868 
     47 S47        33.2663  -46.8187  -56.5436 S.3       11 UNK        -0.2515 
     48 C48        33.8709  -45.3014  -57.3534 C.3       11 UNK         0.0199 
     49 N          30.7957  -48.7164  -55.6483 N.am      5 UNK        -0.4607 
     50 C          30.3104  -49.8932  -55.2343 C.2       4 UNK         0.5031 
     51 O          29.8204  -50.7372  -55.9890 O.2       4 UNK        -0.5119 
     52 CA         30.3777  -50.1606  -53.7192 C.3       4 UNK         0.0263 
     53 CB         29.7985  -51.5377  -53.3279 C.3       4 UNK        -0.1967 
     54 N          31.7339  -49.9973  -53.1795 N.am      4 UNK        -0.4237 
     55 C          32.8380  -50.6709  -53.5361 C.2       3 UNK         0.4908 
     56 O          32.8864  -51.5188  -54.4288 O.2       3 UNK        -0.5102 
     57 CA         34.1152  -50.3075  -52.7719 C.3       3 UNK         0.0241 
     58 CB         35.0653  -51.5072  -52.6016 C.3       3 UNK        -0.1971 
     59 N          34.7978  -49.2553  -53.5218 N.am      3 UNK        -0.4139 
     60 C          35.3041  -48.0913  -53.0928 C.2       2 UNK         0.5016 
     61 O          35.8077  -47.2930  -53.8828 O.2       2 UNK        -0.5319 
     62 CA         35.2561  -47.6912  -51.6012 C.3       2 UNK         0.0286 
     63 CB         36.6312  -47.1955  -51.1177 C.3       2 UNK        -0.1963 
     64 N          34.2811  -46.6142  -51.4321 N.am      2 UNK        -0.4790 
     65 C          32.9518  -46.7809  -51.4126 C.2       1 UNK         0.5024 
     66 O          32.4166  -47.8914  -51.3512 O.2       1 UNK        -0.4888 
     67 H67        28.0984  -45.9296  -51.3926 H         1 UNK         0.0892 
     68 H68        27.9036  -46.3630  -53.0883 H         1 UNK         0.0892 
     69 H69        28.2857  -47.6125  -51.8976 H         1 UNK         0.0892 
     70 H70        30.1708  -45.5156  -50.6113 H         1 UNK         0.3107 
     71 H71        32.2909  -44.9871  -50.4967 H         1 UNK         0.0773 
     72 H72        32.3594  -44.9985  -53.5572 H         1 UNK         0.0680 
     73 H73        33.6137  -44.3358  -52.5399 H         1 UNK         0.0680 
     74 H74        32.4211  -40.9208  -53.6881 H         1 UNK         0.0650 
     75 H75        33.7594  -42.0174  -53.4577 H         1 UNK         0.0650 
     76 H76        34.0689  -43.9721  -54.9999 H         1 UNK         0.1397 
     77 H77        31.9036  -43.9515  -58.6977 H         1 UNK         0.1363 
     78 H78        30.9156  -41.1339  -55.6180 H         1 UNK         0.1355 
     79 H79        30.0317  -40.8382  -57.9034 H         1 UNK         0.0707 
     80 H80        30.5840  -41.8697  -59.1950 H         1 UNK         0.0707 
     81 H81        27.0264  -41.9676  -56.5851 H         1 UNK         0.1034 
     82 H82        28.6182  -41.5401  -56.0553 H         1 UNK         0.1034 
     83 H83        29.0344  -43.9080  -55.3301 H         1 UNK         0.0482 
     84 H84        26.3387  -44.5967  -53.6268 H         1 UNK         0.3460 
     85 H85        26.5518  -43.4482  -52.3274 H         1 UNK         0.3460 
     86 H86        27.7869  -45.5553  -56.0784 H         1 UNK         0.2989 
     87 H87        24.3271  -46.1233  -56.5131 H         1 UNK         0.0559 
     88 H88        24.9071  -45.2603  -58.7490 H         1 UNK         0.0848 
     89 H89        25.1071  -47.0054  -58.7339 H         1 UNK         0.0848 
     90 H90        26.5186  -45.9473  -58.6419 H         1 UNK         0.0848 
     91 H91        26.8149  -47.6376  -56.7938 H         1 UNK         0.3144 
     92 H92        27.7391  -48.4744  -54.3618 H         1 UNK         0.0727 
     93 H93        26.9315  -50.3494  -52.9238 H         1 UNK         0.0790 
     94 H94        25.2654  -49.9839  -53.3639 H         1 UNK         0.0790 
     95 H95        26.2058  -48.8302  -52.4362 H         1 UNK         0.0790 
     96 H96        27.9065  -50.0403  -55.9092 H         1 UNK         0.3215 
     97 H97        27.1340  -52.3543  -56.7645 H         1 UNK         0.0863 
     98 H98        25.8574  -53.0264  -58.8134 H         1 UNK         0.0808 
     99 H99        24.7682  -51.6583  -58.5857 H         1 UNK         0.0808 
    100 H100       24.8302  -52.9424  -57.3917 H         1 UNK         0.0808 
    101 H101       28.4600  -51.2005  -58.1083 H         1 UNK         0.3118 
    102 H102       28.7520  -50.1018  -60.5147 H         1 UNK         0.0546 
    103 H103       27.7972  -47.2448  -59.9785 H         1 UNK         0.0828 
    104 H104       27.2725  -48.2573  -61.3151 H         1 UNK         0.0828 
    105 H105       28.9469  -47.7426  -61.2126 H         1 UNK         0.0828 
    106 H106       30.4327  -49.5552  -59.1902 H         1 UNK         0.3005 
    107 H107       31.6210  -48.9902  -57.5171 H         1 UNK         0.1257 
    108 H108       31.5472  -46.5340  -58.1899 H         1 UNK         0.0775 
    109 H109       30.9541  -46.1492  -56.5891 H         1 UNK         0.0775 
    110 H110       34.9256  -45.1646  -57.1099 H         1 UNK         0.0840 
    111 H111       33.8188  -45.4187  -58.4369 H         1 UNK         0.0840 
    112 H112       31.0662  -48.0339  -54.9459 H         1 UNK         0.2987 
    113 H113       29.7601  -49.3999  -53.2417 H         1 UNK         0.0785 
    114 H114       29.7869  -51.6694  -52.2461 H         1 UNK         0.0798 
    115 H115       30.3734  -52.3575  -53.7596 H         1 UNK         0.0798 
    116 H116       28.7725  -51.6482  -53.6793 H         1 UNK         0.0798 
    117 H117       31.8416  -49.2610  -52.4827 H         1 UNK         0.3079 
    118 H118       33.8005  -49.9949  -51.7795 H         1 UNK         0.0794 
    119 H119       34.5617  -52.3353  -52.1010 H         1 UNK         0.0786 
    120 H120       35.9325  -51.2413  -51.9968 H         1 UNK         0.0786 
    121 H121       35.4297  -51.8778  -53.5606 H         1 UNK         0.0786 
    122 H122       34.8241  -49.4217  -54.5183 H         1 UNK         0.3032 
    123 H123       34.9930  -48.5275  -50.9573 H         1 UNK         0.1094 
    124 H124       36.9722  -46.3206  -51.6729 H         1 UNK         0.0794 
    125 H125       36.6071  -46.9306  -50.0604 H         1 UNK         0.0794 
    126 H126       37.3872  -47.9726  -51.2388 H         1 UNK         0.0794 
    127 H127       34.6494  -45.6757  -51.4881 H         1 UNK         0.3016 
@<TRIPOS>BOND
     1    1    2 1    
     2    1   67 1    
     3    1   68 1    
     4    1   69 1    
     5    2    3 2    
     6    2    4 am   BACKBONE|DICT|INTERRES
     7    4    5 1    
     8    4   70 1    
     9    5    6 1    
    10    5   65 1    
    11    5   71 1    
    12    6    7 1    
    13    6   72 1    
    14    6   73 1    
    15    7    8 1    
    16    8    9 1    
    17    8   74 1    
    18    8   75 1    
    19    9   10 ar   
    20    9   14 ar   
    21   10   11 ar   
    22   10   76 1    
    23   11   12 ar   
    24   11   48 1    
    25   12   13 ar   
    26   12   77 1    
    27   13   14 ar   
    28   13   15 1    
    29   14   78 1    
    30   15   16 1    
    31   15   79 1    
    32   15   80 1    
    33   16   17 1    
    34   17   18 1    
    35   17   81 1    
    36   17   82 1    
    37   18   19 1    
    38   18   22 1    
    39   18   83 1    
    40   19   20 am   BACKBONE|DICT|INTERRES
    41   19   21 2    
    42   20   84 1    
    43   20   85 1    
    44   22   23 am   BACKBONE|DICT|INTERRES
    45   22   86 1    
    46   23   24 2    
    47   23   25 1    
    48   25   26 1    
    49   25   27 1    
    50   25   87 1    
    51   26   88 1    
    52   26   89 1    
    53   26   90 1    
    54   27   28 am   BACKBONE|DICT|INTERRES
    55   27   91 1    
    56   28   29 2    
    57   28   30 1    
    58   30   31 1    
    59   30   32 1    
    60   30   92 1    
    61   31   93 1    
    62   31   94 1    
    63   31   95 1    
    64   32   33 am   BACKBONE|DICT|INTERRES
    65   32   96 1    
    66   33   34 2    
    67   33   35 1    
    68   35   36 1    
    69   35   37 1    
    70   35   97 1    
    71   36   98 1    
    72   36   99 1    
    73   36  100 1    
    74   37   38 am   BACKBONE|DICT|INTERRES
    75   37  101 1    
    76   38   39 2    
    77   38   40 1    
    78   40   41 1    
    79   40   42 1    
    80   40  102 1    
    81   41  103 1    
    82   41  104 1    
    83   41  105 1    
    84   42   43 am   BACKBONE|DICT|INTERRES
    85   42  106 1    
    86   43   44 2    
    87   43   45 1    
    88   45   46 1    
    89   45   49 1    
    90   45  107 1    
    91   46   47 1    
    92   46  108 1    
    93   46  109 1    
    94   47   48 1    
    95   48  110 1    
    96   48  111 1    
    97   49   50 am   BACKBONE|DICT|INTERRES
    98   49  112 1    
    99   50   51 2    
   100   50   52 1    
   101   52   53 1    
   102   52   54 1    
   103   52  113 1    
   104   53  114 1    
   105   53  115 1    
   106   53  116 1    
   107   54   55 am   BACKBONE|DICT|INTERRES
   108   54  117 1    
   109   55   56 2    
   110   55   57 1    
   111   57   58 1    
   112   57   59 1    
   113   57  118 1    
   114   58  119 1    
   115   58  120 1    
   116   58  121 1    
   117   59   60 am   BACKBONE|DICT|INTERRES
   118   59  122 1    
   119   60   61 2    
   120   60   62 1    
   121   62   63 1    
   122   62   64 1    
   123   62  123 1    
   124   63  124 1    
   125   63  125 1    
   126   63  126 1    
   127   64   65 am   BACKBONE|DICT|INTERRES
   128   64  127 1    
   129   65   66 2    
@<TRIPOS>SUBSTRUCTURE
     1 UNK         1 GROUP             0       ****    0 ROOT    
