@<TRIPOS>MOLECULE
3R134
127   129    1
SMALL
USER_CHARGES


@<TRIPOS>ATOM
      1 CA         29.5449  -45.6581  -48.6631 C.3       0 UNK        -0.1968 
      2 C          30.9744  -45.6017  -49.1814 C.2       0 UNK         0.4852 
      3 O          31.9148  -45.7581  -48.4017 O.2       0 UNK        -0.5359 
      4 N          31.1425  -45.3816  -50.4923 N.am      1 UNK        -0.4300 
      5 CA         32.4411  -45.2679  -51.1723 C.3       1 UNK         0.0863 
      6 C6         32.3052  -44.6387  -52.5834 C.3       11 UNK        -0.0953 
      7 S7         31.3790  -43.0651  -52.6137 S.3       11 UNK        -0.2369 
      8 C8         32.3099  -42.1049  -53.8511 C.3       11 UNK         0.0226 
      9 C9         32.1292  -42.6555  -55.2601 C.ar      11 UNK        -0.0699 
     10 C10        32.9929  -43.6418  -55.7434 C.ar      11 UNK        -0.0804 
     11 C11        32.8370  -44.1575  -57.0313 C.ar      11 UNK        -0.0871 
     12 C12        31.8229  -43.6592  -57.8540 C.ar      11 UNK        -0.1008 
     13 C13        30.9595  -42.6620  -57.3905 C.ar      11 UNK        -0.0735 
     14 C14        31.1144  -42.1671  -56.0900 C.ar      11 UNK        -0.0945 
     15 C15        29.8873  -42.0997  -58.3147 C.3       11 UNK         0.0169 
     16 S16        28.4123  -43.1659  -58.4026 S.3       11 UNK        -0.2669 
     17 C17        27.6389  -42.8581  -56.7787 C.3       11 UNK        -0.0850 
     18 CA         27.4716  -44.1593  -55.9388 C.3       10 UNK         0.0855 
     19 C          27.1614  -43.8709  -54.4351 C.2       10 UNK         0.5543 
     20 N          26.5938  -44.8121  -53.6908 N.am      10 UNK        -0.7343 
     21 O          27.4457  -42.7901  -53.9247 O.2       10 UNK        -0.5027 
     22 N          26.5530  -45.1337  -56.5672 N.am      10 UNK        -0.4495 
     23 C          25.2361  -44.9442  -56.7444 C.2       10 UNK         0.4903 
     24 O          24.6566  -43.9071  -56.4171 O.2       10 UNK        -0.4860 
     25 CA         24.3771  -46.0760  -57.3445 C.3       9 UNK         0.0227 
     26 CB         23.5685  -45.5878  -58.5656 C.3       9 UNK        -0.1964 
     27 N          25.0620  -47.3411  -57.6341 N.am      9 UNK        -0.4231 
     28 C          25.9436  -47.6290  -58.6005 C.2       9 UNK         0.5014 
     29 O          26.3855  -46.7983  -59.3950 O.2       9 UNK        -0.5270 
     30 CA         26.3845  -49.1091  -58.6995 C.3       8 UNK         0.0284 
     31 CB         27.5087  -49.3247  -59.7287 C.3       8 UNK        -0.1977 
     32 N          26.7994  -49.6663  -57.4066 N.am      8 UNK        -0.4342 
     33 C          25.9743  -50.0255  -56.4129 C.2       8 UNK         0.5039 
     34 O          24.7465  -49.9922  -56.5044 O.2       8 UNK        -0.5547 
     35 CA         26.6195  -50.3938  -55.0689 C.3       7 UNK         0.0281 
     36 CB         27.0177  -51.8781  -55.0279 C.3       7 UNK        -0.1963 
     37 N          27.7786  -49.5458  -54.7799 N.am      7 UNK        -0.4444 
     38 C          27.6939  -48.2461  -54.4581 C.2       7 UNK         0.5104 
     39 O          26.6313  -47.6406  -54.3138 O.2       7 UNK        -0.5100 
     40 CA         29.0197  -47.4845  -54.2912 C.3       6 UNK         0.0396 
     41 CB         29.5717  -47.6985  -52.8795 C.3       6 UNK        -0.1801 
     42 N          30.0293  -47.8520  -55.2886 N.am      6 UNK        -0.4747 
     43 C          29.8824  -47.6491  -56.6087 C.2       6 UNK         0.5012 
     44 O          28.9292  -47.0420  -57.0956 O.2       6 UNK        -0.5003 
     45 CA         30.9071  -48.3060  -57.5578 C.3       5 UNK         0.0782 
     46 C46        31.9644  -47.3147  -58.0965 C.3       11 UNK        -0.0868 
     47 S47        33.2756  -46.8819  -56.9050 S.3       11 UNK        -0.2515 
     48 C48        33.7776  -45.2462  -57.5227 C.3       11 UNK         0.0199 
     49 N          31.4986  -49.5299  -57.0130 N.am      5 UNK        -0.4607 
     50 C          30.8261  -50.6527  -56.7390 C.2       4 UNK         0.5031 
     51 O          29.6163  -50.7670  -56.9385 O.2       4 UNK        -0.5119 
     52 CA         31.5924  -51.8310  -56.1043 C.3       4 UNK         0.0263 
     53 CB         31.9971  -52.8627  -57.1747 C.3       4 UNK        -0.1967 
     54 N          32.7349  -51.4498  -55.2555 N.am      4 UNK        -0.4237 
     55 C          33.8883  -50.8601  -55.6074 C.2       3 UNK         0.4908 
     56 O          34.1865  -50.5955  -56.7728 O.2       3 UNK        -0.5102 
     57 CA         34.8584  -50.4740  -54.4693 C.3       3 UNK         0.0241 
     58 CB         35.7678  -49.2883  -54.8575 C.3       3 UNK        -0.1971 
     59 N          34.2286  -50.2051  -53.1661 N.am      3 UNK        -0.4139 
     60 C          33.2576  -49.3200  -52.8877 C.2       2 UNK         0.5016 
     61 O          32.6196  -48.7034  -53.7454 O.2       2 UNK        -0.5319 
     62 CA         32.9051  -49.1166  -51.3969 C.3       2 UNK         0.0286 
     63 CB         34.0161  -49.5541  -50.4140 C.3       2 UNK        -0.1963 
     64 N          32.4806  -47.7373  -51.1257 N.am      2 UNK        -0.4790 
     65 C          33.1995  -46.6127  -51.2825 C.2       1 UNK         0.5024 
     66 O          34.4054  -46.5974  -51.5347 O.2       1 UNK        -0.4888 
     67 H67        29.3511  -46.6255  -48.2007 H         1 UNK         0.0892 
     68 H68        29.3878  -44.8840  -47.9124 H         1 UNK         0.0892 
     69 H69        28.8151  -45.5106  -49.4591 H         1 UNK         0.0892 
     70 H70        30.3355  -45.2093  -51.0745 H         1 UNK         0.3107 
     71 H71        33.0655  -44.6037  -50.5707 H         1 UNK         0.0773 
     72 H72        33.3049  -44.4586  -52.9793 H         1 UNK         0.0680 
     73 H73        31.8227  -45.3234  -53.2832 H         1 UNK         0.0680 
     74 H74        33.3670  -42.0859  -53.5815 H         1 UNK         0.0650 
     75 H75        31.9706  -41.0687  -53.8138 H         1 UNK         0.0650 
     76 H76        33.7887  -44.0191  -55.1175 H         1 UNK         0.1397 
     77 H77        31.7038  -44.0429  -58.8580 H         1 UNK         0.1363 
     78 H78        30.4536  -41.3934  -55.7242 H         1 UNK         0.1355 
     79 H79        29.5963  -41.0949  -58.0042 H         1 UNK         0.0707 
     80 H80        30.2988  -41.9942  -59.3197 H         1 UNK         0.0707 
     81 H81        26.6785  -42.3663  -56.9353 H         1 UNK         0.1034 
     82 H82        28.2460  -42.1306  -56.2404 H         1 UNK         0.1034 
     83 H83        28.4483  -44.6426  -55.9206 H         1 UNK         0.0482 
     84 H84        26.4053  -45.7347  -54.0699 H         1 UNK         0.3460 
     85 H85        26.3897  -44.6158  -52.7247 H         1 UNK         0.3460 
     86 H86        26.9812  -45.9978  -56.8771 H         1 UNK         0.2989 
     87 H87        23.6554  -46.3274  -56.5660 H         1 UNK         0.0559 
     88 H88        22.9294  -44.7444  -58.3012 H         1 UNK         0.0848 
     89 H89        22.9194  -46.3726  -58.9539 H         1 UNK         0.0848 
     90 H90        24.2181  -45.2557  -59.3758 H         1 UNK         0.0848 
     91 H91        24.7872  -48.1245  -57.0457 H         1 UNK         0.3144 
     92 H92        25.5160  -49.6735  -59.0457 H         1 UNK         0.0727 
     93 H93        27.8460  -50.3613  -59.7462 H         1 UNK         0.0790 
     94 H94        28.3685  -48.6905  -59.5200 H         1 UNK         0.0790 
     95 H95        27.1651  -49.0778  -60.7340 H         1 UNK         0.0790 
     96 H96        27.7973  -49.7480  -57.2435 H         1 UNK         0.3215 
     97 H97        25.8752  -50.2247  -54.2873 H         1 UNK         0.0863 
     98 H98        27.4606  -52.1446  -54.0682 H         1 UNK         0.0808 
     99 H99        27.7305  -52.1359  -55.8108 H         1 UNK         0.0808 
    100 H100       26.1432  -52.5149  -55.1677 H         1 UNK         0.0808 
    101 H101       28.6915  -49.9475  -54.9414 H         1 UNK         0.3118 
    102 H102       28.8151  -46.4208  -54.4096 H         1 UNK         0.0546 
    103 H103       28.8382  -47.4182  -52.1221 H         1 UNK         0.0828 
    104 H104       30.4516  -47.0815  -52.7270 H         1 UNK         0.0828 
    105 H105       29.8505  -48.7381  -52.7040 H         1 UNK         0.0828 
    106 H106       30.8744  -48.3054  -54.9538 H         1 UNK         0.3005 
    107 H107       30.3275  -48.6235  -58.4250 H         1 UNK         0.1257 
    108 H108       32.4530  -47.7502  -58.9695 H         1 UNK         0.0775 
    109 H109       31.4754  -46.4093  -58.4581 H         1 UNK         0.0775 
    110 H110       34.7906  -45.0362  -57.1761 H         1 UNK         0.0840 
    111 H111       33.8276  -45.2585  -58.6127 H         1 UNK         0.0840 
    112 H112       32.4991  -49.5149  -56.8452 H         1 UNK         0.2987 
    113 H113       30.8849  -52.3217  -55.4339 H         1 UNK         0.0785 
    114 H114       32.4814  -53.7304  -56.7269 H         1 UNK         0.0798 
    115 H115       32.6790  -52.4409  -57.9135 H         1 UNK         0.0798 
    116 H116       31.1210  -53.2236  -57.7154 H         1 UNK         0.0798 
    117 H117       32.5913  -51.5923  -54.2657 H         1 UNK         0.3079 
    118 H118       35.4994  -51.3447  -54.3236 H         1 UNK         0.0794 
    119 H119       36.3398  -49.5030  -55.7610 H         1 UNK         0.0786 
    120 H120       36.4862  -49.0648  -54.0688 H         1 UNK         0.0786 
    121 H121       35.1875  -48.3842  -55.0447 H         1 UNK         0.0786 
    122 H122       34.6504  -50.6834  -52.3820 H         1 UNK         0.3032 
    123 H123       32.0328  -49.7449  -51.2094 H         1 UNK         0.1094 
    124 H124       34.9660  -49.0598  -50.6219 H         1 UNK         0.0794 
    125 H125       33.7423  -49.3186  -49.3853 H         1 UNK         0.0794 
    126 H126       34.1850  -50.6307  -50.4540 H         1 UNK         0.0794 
    127 H127       31.5013  -47.6221  -50.9118 H         1 UNK         0.3016 
@<TRIPOS>BOND
     1    1    2 1    
     2    1   67 1    
     3    1   68 1    
     4    1   69 1    
     5    2    3 2    
     6    2    4 am   BACKBONE|DICT|INTERRES
     7    4    5 1    
     8    4   70 1    
     9    5    6 1    
    10    5   65 1    
    11    5   71 1    
    12    6    7 1    
    13    6   72 1    
    14    6   73 1    
    15    7    8 1    
    16    8    9 1    
    17    8   74 1    
    18    8   75 1    
    19    9   10 ar   
    20    9   14 ar   
    21   10   11 ar   
    22   10   76 1    
    23   11   12 ar   
    24   11   48 1    
    25   12   13 ar   
    26   12   77 1    
    27   13   14 ar   
    28   13   15 1    
    29   14   78 1    
    30   15   16 1    
    31   15   79 1    
    32   15   80 1    
    33   16   17 1    
    34   17   18 1    
    35   17   81 1    
    36   17   82 1    
    37   18   19 1    
    38   18   22 1    
    39   18   83 1    
    40   19   20 am   BACKBONE|DICT|INTERRES
    41   19   21 2    
    42   20   84 1    
    43   20   85 1    
    44   22   23 am   BACKBONE|DICT|INTERRES
    45   22   86 1    
    46   23   24 2    
    47   23   25 1    
    48   25   26 1    
    49   25   27 1    
    50   25   87 1    
    51   26   88 1    
    52   26   89 1    
    53   26   90 1    
    54   27   28 am   BACKBONE|DICT|INTERRES
    55   27   91 1    
    56   28   29 2    
    57   28   30 1    
    58   30   31 1    
    59   30   32 1    
    60   30   92 1    
    61   31   93 1    
    62   31   94 1    
    63   31   95 1    
    64   32   33 am   BACKBONE|DICT|INTERRES
    65   32   96 1    
    66   33   34 2    
    67   33   35 1    
    68   35   36 1    
    69   35   37 1    
    70   35   97 1    
    71   36   98 1    
    72   36   99 1    
    73   36  100 1    
    74   37   38 am   BACKBONE|DICT|INTERRES
    75   37  101 1    
    76   38   39 2    
    77   38   40 1    
    78   40   41 1    
    79   40   42 1    
    80   40  102 1    
    81   41  103 1    
    82   41  104 1    
    83   41  105 1    
    84   42   43 am   BACKBONE|DICT|INTERRES
    85   42  106 1    
    86   43   44 2    
    87   43   45 1    
    88   45   46 1    
    89   45   49 1    
    90   45  107 1    
    91   46   47 1    
    92   46  108 1    
    93   46  109 1    
    94   47   48 1    
    95   48  110 1    
    96   48  111 1    
    97   49   50 am   BACKBONE|DICT|INTERRES
    98   49  112 1    
    99   50   51 2    
   100   50   52 1    
   101   52   53 1    
   102   52   54 1    
   103   52  113 1    
   104   53  114 1    
   105   53  115 1    
   106   53  116 1    
   107   54   55 am   BACKBONE|DICT|INTERRES
   108   54  117 1    
   109   55   56 2    
   110   55   57 1    
   111   57   58 1    
   112   57   59 1    
   113   57  118 1    
   114   58  119 1    
   115   58  120 1    
   116   58  121 1    
   117   59   60 am   BACKBONE|DICT|INTERRES
   118   59  122 1    
   119   60   61 2    
   120   60   62 1    
   121   62   63 1    
   122   62   64 1    
   123   62  123 1    
   124   63  124 1    
   125   63  125 1    
   126   63  126 1    
   127   64   65 am   BACKBONE|DICT|INTERRES
   128   64  127 1    
   129   65   66 2    
@<TRIPOS>SUBSTRUCTURE
     1 UNK         1 GROUP             0       ****    0 ROOT    
