@<TRIPOS>MOLECULE
3R134
127   129    1
SMALL
USER_CHARGES


@<TRIPOS>ATOM
      1 CA         35.4835  -43.1922  -52.1193 C.3       0 UNK        -0.1968 
      2 C          35.9333  -44.1951  -53.1713 C.2       0 UNK         0.4852 
      3 O          37.0440  -44.0784  -53.6905 O.2       0 UNK        -0.5359 
      4 N          35.0795  -45.1811  -53.4727 N.am      1 UNK        -0.4300 
      5 CA         35.3187  -46.2564  -54.4442 C.3       1 UNK         0.0863 
      6 C6         34.3703  -46.1829  -55.6780 C.3       11 UNK        -0.0953 
      7 S7         34.5225  -44.6156  -56.6135 S.3       11 UNK        -0.2369 
      8 C8         32.8121  -44.3080  -57.2051 C.3       11 UNK         0.0226 
      9 C9         31.7603  -43.9844  -56.1378 C.ar      11 UNK        -0.0699 
     10 C10        32.0826  -43.8712  -54.7834 C.ar      11 UNK        -0.0804 
     11 C11        31.0952  -43.7051  -53.8147 C.ar      11 UNK        -0.0871 
     12 C12        29.7678  -43.5366  -54.2100 C.ar      11 UNK        -0.1008 
     13 C13        29.4254  -43.5984  -55.5643 C.ar      11 UNK        -0.0735 
     14 C14        30.4220  -43.8304  -56.5202 C.ar      11 UNK        -0.0945 
     15 C15        27.9717  -43.4400  -55.9795 C.3       11 UNK         0.0169 
     16 S16        26.9930  -44.8876  -55.4803 S.3       11 UNK        -0.2669 
     17 C17        25.2978  -44.2660  -55.7397 C.3       11 UNK        -0.0850 
     18 CA         24.3520  -45.3478  -56.3347 C.3       10 UNK         0.0855 
     19 C          22.8534  -44.9146  -56.3246 C.2       10 UNK         0.5543 
     20 N          22.0272  -45.3800  -57.2539 N.am      10 UNK        -0.7343 
     21 O          22.4206  -44.1727  -55.4458 O.2       10 UNK        -0.5027 
     22 N          24.8315  -45.8924  -57.6193 N.am      10 UNK        -0.4495 
     23 C          24.9448  -45.2108  -58.7684 C.2       10 UNK         0.4903 
     24 O          24.6620  -44.0174  -58.8906 O.2       10 UNK        -0.4860 
     25 CA         25.4394  -46.0118  -59.9887 C.3       9 UNK         0.0227 
     26 CB         25.6241  -45.1403  -61.2499 C.3       9 UNK        -0.1964 
     27 N          26.6536  -46.7864  -59.7123 N.am      9 UNK        -0.4231 
     28 C          27.8555  -46.3332  -59.3277 C.2       9 UNK         0.5014 
     29 O          28.1208  -45.1432  -59.1512 O.2       9 UNK        -0.5270 
     30 CA         28.9476  -47.4062  -59.1289 C.3       8 UNK         0.0284 
     31 CB         30.2865  -46.8158  -58.6535 C.3       8 UNK        -0.1977 
     32 N          28.5401  -48.4628  -58.1979 N.am      8 UNK        -0.4342 
     33 C          27.6937  -49.4625  -58.4823 C.2       8 UNK         0.5039 
     34 O          27.1485  -49.5970  -59.5792 O.2       8 UNK        -0.5547 
     35 CA         27.3717  -50.4603  -57.3592 C.3       7 UNK         0.0281 
     36 CB         28.4212  -51.5826  -57.3241 C.3       7 UNK        -0.1963 
     37 N          27.2755  -49.8356  -56.0385 N.am      7 UNK        -0.4444 
     38 C          26.3214  -48.9698  -55.6637 C.2       7 UNK         0.5104 
     39 O          25.4109  -48.5867  -56.3988 O.2       7 UNK        -0.5100 
     40 CA         26.4306  -48.4285  -54.2324 C.3       6 UNK         0.0396 
     41 CB         26.0066  -49.5102  -53.2177 C.3       6 UNK        -0.1801 
     42 N          27.8039  -47.9745  -54.0231 N.am      6 UNK        -0.4747 
     43 C          28.3709  -47.4447  -52.9360 C.2       6 UNK         0.5012 
     44 O          27.7835  -47.3080  -51.8613 O.2       6 UNK        -0.5003 
     45 CA         29.8511  -46.9966  -53.0869 C.3       5 UNK         0.0782 
     46 C46        30.3803  -46.3393  -51.7798 C.3       11 UNK        -0.0868 
     47 S47        31.9929  -45.5003  -51.9406 S.3       11 UNK        -0.2515 
     48 C48        31.4789  -43.7946  -52.3484 C.3       11 UNK         0.0199 
     49 N          30.7234  -48.0844  -53.5683 N.am      5 UNK        -0.4607 
     50 C          30.6984  -48.6275  -54.7978 C.2       4 UNK         0.5031 
     51 O          29.9654  -48.2183  -55.7001 O.2       4 UNK        -0.5119 
     52 CA         31.5711  -49.8600  -55.0917 C.3       4 UNK         0.0263 
     53 CB         32.4663  -49.6299  -56.3191 C.3       4 UNK        -0.1967 
     54 N          32.3781  -50.3101  -53.9563 N.am      4 UNK        -0.4237 
     55 C          31.9065  -51.0784  -52.9611 C.2       3 UNK         0.4908 
     56 O          30.7360  -51.4561  -52.8963 O.2       3 UNK        -0.5102 
     57 CA         32.8830  -51.5130  -51.8512 C.3       3 UNK         0.0241 
     58 CB         33.2444  -52.9997  -52.0069 C.3       3 UNK        -0.1971 
     59 N          34.1177  -50.7280  -51.7949 N.am      3 UNK        -0.4139 
     60 C          34.1916  -49.4396  -51.4385 C.2       2 UNK         0.5016 
     61 O          33.2137  -48.7716  -51.0998 O.2       2 UNK        -0.5319 
     62 CA         35.5780  -48.7685  -51.4952 C.3       2 UNK         0.0286 
     63 CB         36.7425  -49.7299  -51.8303 C.3       2 UNK        -0.1963 
     64 N          35.5842  -47.6244  -52.4138 N.am      2 UNK        -0.4790 
     65 C          35.2559  -47.6196  -53.7176 C.2       1 UNK         0.5024 
     66 O          34.9146  -48.6325  -54.3306 O.2       1 UNK        -0.4888 
     67 H67        35.1529  -42.2705  -52.5973 H         1 UNK         0.0892 
     68 H68        34.6646  -43.5797  -51.5139 H         1 UNK         0.0892 
     69 H69        36.3084  -42.9519  -51.4490 H         1 UNK         0.0892 
     70 H70        34.1956  -45.2433  -52.9819 H         1 UNK         0.3107 
     71 H71        36.3407  -46.1891  -54.8223 H         1 UNK         0.0773 
     72 H72        33.3334  -46.3340  -55.3729 H         1 UNK         0.0680 
     73 H73        34.6032  -46.9857  -56.3789 H         1 UNK         0.0680 
     74 H74        32.8459  -43.4804  -57.9146 H         1 UNK         0.0650 
     75 H75        32.4896  -45.1839  -57.7681 H         1 UNK         0.0650 
     76 H76        33.1020  -43.9655  -54.4577 H         1 UNK         0.1397 
     77 H77        28.9934  -43.4009  -53.4671 H         1 UNK         0.1363 
     78 H78        30.1500  -43.9087  -57.5645 H         1 UNK         0.1355 
     79 H79        27.5627  -42.5425  -55.5131 H         1 UNK         0.0707 
     80 H80        27.8841  -43.3021  -57.0585 H         1 UNK         0.0707 
     81 H81        24.9309  -43.9243  -54.7704 H         1 UNK         0.1034 
     82 H82        25.3159  -43.3842  -56.3818 H         1 UNK         0.1034 
     83 H83        24.3758  -46.1923  -55.6465 H         1 UNK         0.0482 
     84 H84        22.3654  -46.0017  -57.9705 H         1 UNK         0.3460 
     85 H85        21.0575  -45.1057  -57.2369 H         1 UNK         0.3460 
     86 H86        25.0881  -46.8727  -57.5915 H         1 UNK         0.2989 
     87 H87        24.6591  -46.7417  -60.2088 H         1 UNK         0.0559 
     88 H88        25.9368  -45.7395  -62.1049 H         1 UNK         0.0848 
     89 H89        26.3695  -44.3591  -61.0970 H         1 UNK         0.0848 
     90 H90        24.6905  -44.6480  -61.5248 H         1 UNK         0.0848 
     91 H91        26.5715  -47.7972  -59.8061 H         1 UNK         0.3144 
     92 H92        29.1226  -47.8583  -60.1075 H         1 UNK         0.0727 
     93 H93        30.6335  -46.0303  -59.3259 H         1 UNK         0.0790 
     94 H94        30.1964  -46.3838  -57.6571 H         1 UNK         0.0790 
     95 H95        31.0657  -47.5765  -58.6168 H         1 UNK         0.0790 
     96 H96        28.9449  -48.4104  -57.2656 H         1 UNK         0.3215 
     97 H97        26.4011  -50.9078  -57.5844 H         1 UNK         0.0863 
     98 H98        28.1936  -52.3201  -56.5541 H         1 UNK         0.0808 
     99 H99        29.4227  -51.1949  -57.1374 H         1 UNK         0.0808 
    100 H100       28.4532  -52.1118  -58.2776 H         1 UNK         0.0808 
    101 H101       27.9743  -50.0989  -55.3595 H         1 UNK         0.3118 
    102 H102       25.7675  -47.5672  -54.1372 H         1 UNK         0.0546 
    103 H103       26.7169  -50.3368  -53.1829 H         1 UNK         0.0828 
    104 H104       25.0320  -49.9265  -53.4762 H         1 UNK         0.0828 
    105 H105       25.9171  -49.1049  -52.2104 H         1 UNK         0.0828 
    106 H106       28.3986  -48.0083  -54.8497 H         1 UNK         0.3005 
    107 H107       29.8442  -46.2313  -53.8642 H         1 UNK         0.1257 
    108 H108       30.4755  -47.0941  -50.9970 H         1 UNK         0.0775 
    109 H109       29.6666  -45.6066  -51.3984 H         1 UNK         0.0775 
    110 H110       30.6594  -43.4793  -51.7007 H         1 UNK         0.0840 
    111 H111       32.3046  -43.1104  -52.1502 H         1 UNK         0.0840 
    112 H112       31.3549  -48.4748  -52.8823 H         1 UNK         0.2987 
    113 H113       30.8831  -50.6667  -55.3499 H         1 UNK         0.0785 
    114 H114       33.1033  -48.7571  -56.1959 H         1 UNK         0.0798 
    115 H115       31.8645  -49.4649  -57.2135 H         1 UNK         0.0798 
    116 H116       33.1060  -50.4902  -56.5158 H         1 UNK         0.0798 
    117 H117       33.3426  -49.9955  -53.9348 H         1 UNK         0.3079 
    118 H118       32.3624  -51.3861  -50.8994 H         1 UNK         0.0794 
    119 H119       32.3480  -53.6216  -52.0152 H         1 UNK         0.0786 
    120 H120       33.8672  -53.3462  -51.1818 H         1 UNK         0.0786 
    121 H121       33.7809  -53.1896  -52.9374 H         1 UNK         0.0786 
    122 H122       34.9669  -51.1941  -52.0800 H         1 UNK         0.3032 
    123 H123       35.7559  -48.3699  -50.4949 H         1 UNK         0.1094 
    124 H124       37.6985  -49.2074  -51.7928 H         1 UNK         0.0794 
    125 H125       36.8035  -50.5468  -51.1098 H         1 UNK         0.0794 
    126 H126       36.6498  -50.1651  -52.8261 H         1 UNK         0.0794 
    127 H127       35.8289  -46.7369  -51.9978 H         1 UNK         0.3016 
@<TRIPOS>BOND
     1    1    2 1    
     2    1   67 1    
     3    1   68 1    
     4    1   69 1    
     5    2    3 2    
     6    2    4 am   BACKBONE|DICT|INTERRES
     7    4    5 1    
     8    4   70 1    
     9    5    6 1    
    10    5   65 1    
    11    5   71 1    
    12    6    7 1    
    13    6   72 1    
    14    6   73 1    
    15    7    8 1    
    16    8    9 1    
    17    8   74 1    
    18    8   75 1    
    19    9   10 ar   
    20    9   14 ar   
    21   10   11 ar   
    22   10   76 1    
    23   11   12 ar   
    24   11   48 1    
    25   12   13 ar   
    26   12   77 1    
    27   13   14 ar   
    28   13   15 1    
    29   14   78 1    
    30   15   16 1    
    31   15   79 1    
    32   15   80 1    
    33   16   17 1    
    34   17   18 1    
    35   17   81 1    
    36   17   82 1    
    37   18   19 1    
    38   18   22 1    
    39   18   83 1    
    40   19   20 am   BACKBONE|DICT|INTERRES
    41   19   21 2    
    42   20   84 1    
    43   20   85 1    
    44   22   23 am   BACKBONE|DICT|INTERRES
    45   22   86 1    
    46   23   24 2    
    47   23   25 1    
    48   25   26 1    
    49   25   27 1    
    50   25   87 1    
    51   26   88 1    
    52   26   89 1    
    53   26   90 1    
    54   27   28 am   BACKBONE|DICT|INTERRES
    55   27   91 1    
    56   28   29 2    
    57   28   30 1    
    58   30   31 1    
    59   30   32 1    
    60   30   92 1    
    61   31   93 1    
    62   31   94 1    
    63   31   95 1    
    64   32   33 am   BACKBONE|DICT|INTERRES
    65   32   96 1    
    66   33   34 2    
    67   33   35 1    
    68   35   36 1    
    69   35   37 1    
    70   35   97 1    
    71   36   98 1    
    72   36   99 1    
    73   36  100 1    
    74   37   38 am   BACKBONE|DICT|INTERRES
    75   37  101 1    
    76   38   39 2    
    77   38   40 1    
    78   40   41 1    
    79   40   42 1    
    80   40  102 1    
    81   41  103 1    
    82   41  104 1    
    83   41  105 1    
    84   42   43 am   BACKBONE|DICT|INTERRES
    85   42  106 1    
    86   43   44 2    
    87   43   45 1    
    88   45   46 1    
    89   45   49 1    
    90   45  107 1    
    91   46   47 1    
    92   46  108 1    
    93   46  109 1    
    94   47   48 1    
    95   48  110 1    
    96   48  111 1    
    97   49   50 am   BACKBONE|DICT|INTERRES
    98   49  112 1    
    99   50   51 2    
   100   50   52 1    
   101   52   53 1    
   102   52   54 1    
   103   52  113 1    
   104   53  114 1    
   105   53  115 1    
   106   53  116 1    
   107   54   55 am   BACKBONE|DICT|INTERRES
   108   54  117 1    
   109   55   56 2    
   110   55   57 1    
   111   57   58 1    
   112   57   59 1    
   113   57  118 1    
   114   58  119 1    
   115   58  120 1    
   116   58  121 1    
   117   59   60 am   BACKBONE|DICT|INTERRES
   118   59  122 1    
   119   60   61 2    
   120   60   62 1    
   121   62   63 1    
   122   62   64 1    
   123   62  123 1    
   124   63  124 1    
   125   63  125 1    
   126   63  126 1    
   127   64   65 am   BACKBONE|DICT|INTERRES
   128   64  127 1    
   129   65   66 2    
@<TRIPOS>SUBSTRUCTURE
     1 UNK         1 GROUP             0       ****    0 ROOT    
