@<TRIPOS>MOLECULE
3R134
127   129    1
SMALL
USER_CHARGES


@<TRIPOS>ATOM
      1 CA         30.0460  -44.9710  -52.7712 C.3       0 UNK        -0.1968 
      2 C          31.1010  -45.2033  -51.7070 C.2       0 UNK         0.4852 
      3 O          30.8479  -45.9239  -50.7413 O.2       0 UNK        -0.5359 
      4 N          32.2852  -44.6019  -51.8793 N.am      1 UNK        -0.4300 
      5 CA         33.4314  -44.7612  -50.9776 C.3       1 UNK         0.0863 
      6 C6         34.3446  -43.5105  -50.9840 C.3       11 UNK        -0.0953 
      7 S7         35.1727  -43.1634  -52.5741 S.3       11 UNK        -0.2369 
      8 C8         34.2098  -41.7649  -53.2472 C.3       11 UNK         0.0226 
      9 C9         33.1713  -42.1952  -54.2782 C.ar      11 UNK        -0.0699 
     10 C10        33.5457  -43.0189  -55.3464 C.ar      11 UNK        -0.0804 
     11 C11        32.6198  -43.3757  -56.3280 C.ar      11 UNK        -0.0871 
     12 C12        31.3221  -42.8671  -56.2618 C.ar      11 UNK        -0.1008 
     13 C13        30.9233  -42.0597  -55.1960 C.ar      11 UNK        -0.0735 
     14 C14        31.8521  -41.7273  -54.2017 C.ar      11 UNK        -0.0945 
     15 C15        29.4920  -41.5420  -55.1538 C.3       11 UNK         0.0169 
     16 S16        28.2942  -42.8904  -54.8606 S.3       11 UNK        -0.2669 
     17 C17        26.9612  -42.5039  -56.0506 C.3       11 UNK        -0.0850 
     18 CA         26.7702  -43.5568  -57.1763 C.3       10 UNK         0.0855 
     19 C          28.0078  -43.6845  -58.1096 C.2       10 UNK         0.5543 
     20 N          28.6601  -44.8388  -58.1942 N.am      10 UNK        -0.7343 
     21 O          28.3704  -42.7219  -58.7807 O.2       10 UNK        -0.5027 
     22 N          26.2764  -44.8458  -56.6594 N.am      10 UNK        -0.4495 
     23 C          25.3566  -45.5945  -57.2814 C.2       10 UNK         0.4903 
     24 O          24.7673  -45.2418  -58.3063 O.2       10 UNK        -0.4860 
     25 CA         25.0256  -46.9556  -56.6417 C.3       9 UNK         0.0227 
     26 CB         24.2609  -46.7481  -55.3232 C.3       9 UNK        -0.1964 
     27 N          24.1895  -47.7609  -57.5374 N.am      9 UNK        -0.4231 
     28 C          24.5472  -48.5634  -58.5539 C.2       9 UNK         0.5014 
     29 O          23.7017  -48.9705  -59.3499 O.2       9 UNK        -0.5270 
     30 CA         26.0031  -49.0499  -58.7447 C.3       8 UNK         0.0284 
     31 CB         26.9356  -47.9752  -59.3271 C.3       8 UNK        -0.1977 
     32 N          26.6007  -49.6845  -57.5668 N.am      8 UNK        -0.4342 
     33 C          26.1733  -50.8352  -57.0254 C.2       8 UNK         0.5039 
     34 O          25.2144  -51.4774  -57.4565 O.2       8 UNK        -0.5547 
     35 CA         26.9551  -51.4033  -55.8260 C.3       7 UNK         0.0281 
     36 CB         27.8645  -52.5559  -56.2837 C.3       7 UNK        -0.1963 
     37 N          27.7646  -50.4129  -55.1148 N.am      7 UNK        -0.4444 
     38 C          27.2727  -49.4337  -54.3455 C.2       7 UNK         0.5104 
     39 O          26.0741  -49.2824  -54.1145 O.2       7 UNK        -0.5100 
     40 CA         28.2856  -48.4459  -53.7434 C.3       6 UNK         0.0396 
     41 CB         28.7307  -48.9133  -52.3495 C.3       6 UNK        -0.1801 
     42 N          29.4683  -48.2419  -54.5838 N.am      6 UNK        -0.4747 
     43 C          29.4668  -47.6443  -55.7846 C.2       6 UNK         0.5012 
     44 O          28.4612  -47.1815  -56.3224 O.2       6 UNK        -0.5003 
     45 CA         30.8201  -47.5477  -56.5076 C.3       5 UNK         0.0782 
     46 C46        31.6061  -46.3338  -55.9706 C.3       11 UNK        -0.0868 
     47 S47        33.1894  -46.0473  -56.8332 S.3       11 UNK        -0.2515 
     48 C48        33.0032  -44.3378  -57.4439 C.3       11 UNK         0.0199 
     49 N          31.5639  -48.8011  -56.3832 N.am      5 UNK        -0.4607 
     50 C          31.2806  -49.9173  -57.0664 C.2       4 UNK         0.5031 
     51 O          30.3954  -49.9926  -57.9183 O.2       4 UNK        -0.5119 
     52 CA         32.1097  -51.1679  -56.7257 C.3       4 UNK         0.0263 
     53 CB         33.3726  -51.2293  -57.5995 C.3       4 UNK        -0.1967 
     54 N          32.4908  -51.2377  -55.3117 N.am      4 UNK        -0.4237 
     55 C          31.6222  -51.3825  -54.3006 C.2       3 UNK         0.4908 
     56 O          30.4079  -51.5057  -54.4537 O.2       3 UNK        -0.5102 
     57 CA         32.1988  -51.3324  -52.8757 C.3       3 UNK         0.0241 
     58 CB         32.7046  -52.7198  -52.4492 C.3       3 UNK        -0.1971 
     59 N          33.2659  -50.3397  -52.6967 N.am      3 UNK        -0.4139 
     60 C          33.1278  -49.0237  -52.9078 C.2       2 UNK         0.5016 
     61 O          32.1009  -48.5029  -53.3538 O.2       2 UNK        -0.5319 
     62 CA         34.3491  -48.1463  -52.6097 C.3       2 UNK         0.0286 
     63 CB         35.2705  -48.0692  -53.8380 C.3       2 UNK        -0.1963 
     64 N          33.8711  -46.8061  -52.2882 N.am      2 UNK        -0.4790 
     65 C          34.2048  -46.0817  -51.2127 C.2       1 UNK         0.5024 
     66 O          35.0707  -46.4246  -50.4060 O.2       1 UNK        -0.4888 
     67 H67        29.5860  -45.9131  -53.0592 H         1 UNK         0.0892 
     68 H68        30.4705  -44.5169  -53.6656 H         1 UNK         0.0892 
     69 H69        29.2664  -44.3150  -52.3859 H         1 UNK         0.0892 
     70 H70        32.4464  -44.0159  -52.6879 H         1 UNK         0.3107 
     71 H71        33.0385  -44.8396  -49.9613 H         1 UNK         0.0773 
     72 H72        33.7686  -42.6381  -50.6732 H         1 UNK         0.0680 
     73 H73        35.1228  -43.6188  -50.2263 H         1 UNK         0.0680 
     74 H74        34.9046  -41.0814  -53.7366 H         1 UNK         0.0650 
     75 H75        33.7508  -41.1961  -52.4377 H         1 UNK         0.0650 
     76 H76        34.5580  -43.3947  -55.4101 H         1 UNK         0.1397 
     77 H77        30.6049  -43.1271  -57.0266 H         1 UNK         0.1363 
     78 H78        31.5539  -41.0861  -53.3834 H         1 UNK         0.1355 
     79 H79        29.3729  -40.7868  -54.3757 H         1 UNK         0.0707 
     80 H80        29.2848  -41.0428  -56.1011 H         1 UNK         0.0707 
     81 H81        27.1221  -41.5179  -56.4891 H         1 UNK         0.1034 
     82 H82        26.0319  -42.4100  -55.4868 H         1 UNK         0.1034 
     83 H83        25.9928  -43.1390  -57.8188 H         1 UNK         0.0482 
     84 H84        29.4383  -44.9152  -58.8277 H         1 UNK         0.3460 
     85 H85        28.3913  -45.6239  -57.6142 H         1 UNK         0.3460 
     86 H86        26.7524  -45.2094  -55.8456 H         1 UNK         0.2989 
     87 H87        25.9514  -47.4778  -56.4182 H         1 UNK         0.0559 
     88 H88        23.9686  -47.7008  -54.8811 H         1 UNK         0.0848 
     89 H89        23.3567  -46.1545  -55.4653 H         1 UNK         0.0848 
     90 H90        24.8782  -46.2327  -54.5864 H         1 UNK         0.0848 
     91 H91        23.2113  -47.5165  -57.5014 H         1 UNK         0.3144 
     92 H92        25.9500  -49.8320  -59.5056 H         1 UNK         0.0727 
     93 H93        27.8575  -48.4196  -59.7030 H         1 UNK         0.0790 
     94 H94        27.2138  -47.2263  -58.5918 H         1 UNK         0.0790 
     95 H95        26.4630  -47.4545  -60.1609 H         1 UNK         0.0790 
     96 H96        27.3864  -49.2125  -57.1398 H         1 UNK         0.3215 
     97 H97        26.2213  -51.8060  -55.1243 H         1 UNK         0.0863 
     98 H98        28.3418  -53.0453  -55.4345 H         1 UNK         0.0808 
     99 H99        28.6505  -52.2057  -56.9542 H         1 UNK         0.0808 
    100 H100       27.2951  -53.3188  -56.8164 H         1 UNK         0.0808 
    101 H101       28.7726  -50.5283  -55.1575 H         1 UNK         0.3118 
    102 H102       27.7807  -47.4835  -53.6375 H         1 UNK         0.0546 
    103 H103       29.2262  -49.8835  -52.3912 H         1 UNK         0.0828 
    104 H104       27.8756  -49.0120  -51.6797 H         1 UNK         0.0828 
    105 H105       29.4220  -48.2052  -51.8919 H         1 UNK         0.0828 
    106 H106       30.3604  -48.5416  -54.1969 H         1 UNK         0.3005 
    107 H107       30.6109  -47.3769  -57.5664 H         1 UNK         0.1257 
    108 H108       30.9758  -45.4503  -56.0532 H         1 UNK         0.0775 
    109 H109       31.8246  -46.4429  -54.9080 H         1 UNK         0.0775 
    110 H110       33.9420  -44.0161  -57.8969 H         1 UNK         0.0840 
    111 H111       32.2580  -44.3244  -58.2409 H         1 UNK         0.0840 
    112 H112       32.2751  -48.8269  -55.6667 H         1 UNK         0.2987 
    113 H113       31.4935  -52.0415  -56.9501 H         1 UNK         0.0785 
    114 H114       34.0402  -50.3884  -57.4063 H         1 UNK         0.0798 
    115 H115       33.1142  -51.2030  -58.6591 H         1 UNK         0.0798 
    116 H116       33.9309  -52.1497  -57.4272 H         1 UNK         0.0798 
    117 H117       33.4720  -51.1439  -55.0940 H         1 UNK         0.3079 
    118 H118       31.3824  -51.0514  -52.2075 H         1 UNK         0.0794 
    119 H119       33.5534  -53.0456  -53.0517 H         1 UNK         0.0786 
    120 H120       31.9205  -53.4708  -52.5576 H         1 UNK         0.0786 
    121 H121       33.0123  -52.7261  -51.4033 H         1 UNK         0.0786 
    122 H122       34.1475  -50.6862  -52.3456 H         1 UNK         0.3032 
    123 H123       34.8934  -48.5738  -51.7645 H         1 UNK         0.1094 
    124 H124       36.1287  -47.4250  -53.6461 H         1 UNK         0.0794 
    125 H125       35.6576  -49.0536  -54.1037 H         1 UNK         0.0794 
    126 H126       34.7485  -47.6750  -54.7108 H         1 UNK         0.0794 
    127 H127       33.0862  -46.4990  -52.8461 H         1 UNK         0.3016 
@<TRIPOS>BOND
     1    1    2 1    
     2    1   67 1    
     3    1   68 1    
     4    1   69 1    
     5    2    3 2    
     6    2    4 am   BACKBONE|DICT|INTERRES
     7    4    5 1    
     8    4   70 1    
     9    5    6 1    
    10    5   65 1    
    11    5   71 1    
    12    6    7 1    
    13    6   72 1    
    14    6   73 1    
    15    7    8 1    
    16    8    9 1    
    17    8   74 1    
    18    8   75 1    
    19    9   10 ar   
    20    9   14 ar   
    21   10   11 ar   
    22   10   76 1    
    23   11   12 ar   
    24   11   48 1    
    25   12   13 ar   
    26   12   77 1    
    27   13   14 ar   
    28   13   15 1    
    29   14   78 1    
    30   15   16 1    
    31   15   79 1    
    32   15   80 1    
    33   16   17 1    
    34   17   18 1    
    35   17   81 1    
    36   17   82 1    
    37   18   19 1    
    38   18   22 1    
    39   18   83 1    
    40   19   20 am   BACKBONE|DICT|INTERRES
    41   19   21 2    
    42   20   84 1    
    43   20   85 1    
    44   22   23 am   BACKBONE|DICT|INTERRES
    45   22   86 1    
    46   23   24 2    
    47   23   25 1    
    48   25   26 1    
    49   25   27 1    
    50   25   87 1    
    51   26   88 1    
    52   26   89 1    
    53   26   90 1    
    54   27   28 am   BACKBONE|DICT|INTERRES
    55   27   91 1    
    56   28   29 2    
    57   28   30 1    
    58   30   31 1    
    59   30   32 1    
    60   30   92 1    
    61   31   93 1    
    62   31   94 1    
    63   31   95 1    
    64   32   33 am   BACKBONE|DICT|INTERRES
    65   32   96 1    
    66   33   34 2    
    67   33   35 1    
    68   35   36 1    
    69   35   37 1    
    70   35   97 1    
    71   36   98 1    
    72   36   99 1    
    73   36  100 1    
    74   37   38 am   BACKBONE|DICT|INTERRES
    75   37  101 1    
    76   38   39 2    
    77   38   40 1    
    78   40   41 1    
    79   40   42 1    
    80   40  102 1    
    81   41  103 1    
    82   41  104 1    
    83   41  105 1    
    84   42   43 am   BACKBONE|DICT|INTERRES
    85   42  106 1    
    86   43   44 2    
    87   43   45 1    
    88   45   46 1    
    89   45   49 1    
    90   45  107 1    
    91   46   47 1    
    92   46  108 1    
    93   46  109 1    
    94   47   48 1    
    95   48  110 1    
    96   48  111 1    
    97   49   50 am   BACKBONE|DICT|INTERRES
    98   49  112 1    
    99   50   51 2    
   100   50   52 1    
   101   52   53 1    
   102   52   54 1    
   103   52  113 1    
   104   53  114 1    
   105   53  115 1    
   106   53  116 1    
   107   54   55 am   BACKBONE|DICT|INTERRES
   108   54  117 1    
   109   55   56 2    
   110   55   57 1    
   111   57   58 1    
   112   57   59 1    
   113   57  118 1    
   114   58  119 1    
   115   58  120 1    
   116   58  121 1    
   117   59   60 am   BACKBONE|DICT|INTERRES
   118   59  122 1    
   119   60   61 2    
   120   60   62 1    
   121   62   63 1    
   122   62   64 1    
   123   62  123 1    
   124   63  124 1    
   125   63  125 1    
   126   63  126 1    
   127   64   65 am   BACKBONE|DICT|INTERRES
   128   64  127 1    
   129   65   66 2    
@<TRIPOS>SUBSTRUCTURE
     1 UNK         1 GROUP             0       ****    0 ROOT    
