@<TRIPOS>MOLECULE
3R134
127   129    1
SMALL
USER_CHARGES


@<TRIPOS>ATOM
      1 CA         38.3918  -42.9929  -55.0937 C.3       0 UNK        -0.1968 
      2 C          36.9938  -43.5751  -55.2440 C.2       0 UNK         0.4852 
      3 O          36.4515  -43.5840  -56.3505 O.2       0 UNK        -0.5359 
      4 N          36.4054  -44.0510  -54.1396 N.am      1 UNK        -0.4300 
      5 CA         35.0863  -44.6896  -54.1040 C.3       1 UNK         0.0863 
      6 C6         34.4911  -44.7151  -52.6726 C.3       11 UNK        -0.0953 
      7 S7         34.3208  -43.0703  -51.9018 S.3       11 UNK        -0.2369 
      8 C8         33.1365  -42.2223  -53.0009 C.3       11 UNK         0.0226 
      9 C9         31.8430  -42.9992  -53.2190 C.ar      11 UNK        -0.0699 
     10 C10        31.0137  -43.3159  -52.1376 C.ar      11 UNK        -0.0804 
     11 C11        29.8103  -44.0002  -52.3397 C.ar      11 UNK        -0.0871 
     12 C12        29.4296  -44.3468  -53.6385 C.ar      11 UNK        -0.1008 
     13 C13        30.2605  -44.0607  -54.7237 C.ar      11 UNK        -0.0735 
     14 C14        31.4652  -43.3852  -54.5093 C.ar      11 UNK        -0.0945 
     15 C15        29.8729  -44.5202  -56.1200 C.3       11 UNK         0.0169 
     16 S16        29.4037  -43.1472  -57.2159 S.3       11 UNK        -0.2669 
     17 C17        27.8111  -42.5947  -56.5062 C.3       11 UNK        -0.0850 
     18 CA         26.5554  -42.9932  -57.3294 C.3       10 UNK         0.0855 
     19 C          26.5247  -42.3355  -58.7403 C.2       10 UNK         0.5543 
     20 N          26.2225  -41.0457  -58.8108 N.am      10 UNK        -0.7343 
     21 O          26.7949  -42.9654  -59.7611 O.2       10 UNK        -0.5027 
     22 N          26.3488  -44.4497  -57.3367 N.am      10 UNK        -0.4495 
     23 C          25.2124  -45.0596  -57.7005 C.2       10 UNK         0.4903 
     24 O          24.1985  -44.4559  -58.0563 O.2       10 UNK        -0.4860 
     25 CA         25.1811  -46.5972  -57.5924 C.3       9 UNK         0.0227 
     26 CB         24.0963  -47.2495  -58.4764 C.3       9 UNK        -0.1964 
     27 N          26.4868  -47.2374  -57.7890 N.am      9 UNK        -0.4231 
     28 C          27.2086  -47.3028  -58.9191 C.2       9 UNK         0.5014 
     29 O          26.8741  -46.7843  -59.9842 O.2       9 UNK        -0.5270 
     30 CA         28.5222  -48.1025  -58.8620 C.3       8 UNK         0.0284 
     31 CB         29.7063  -47.2067  -58.4764 C.3       8 UNK        -0.1977 
     32 N          28.4457  -49.2293  -57.9296 N.am      8 UNK        -0.4342 
     33 C          27.9812  -50.4434  -58.2518 C.2       8 UNK         0.5039 
     34 O          27.6590  -50.7817  -59.3914 O.2       8 UNK        -0.5547 
     35 CA         27.8252  -51.4404  -57.0930 C.3       7 UNK         0.0281 
     36 CB         29.1727  -52.0939  -56.7425 C.3       7 UNK        -0.1963 
     37 N          27.2415  -50.8052  -55.9066 N.am      7 UNK        -0.4444 
     38 C          25.9551  -50.4272  -55.8266 C.2       7 UNK         0.5104 
     39 O          25.1339  -50.6221  -56.7228 O.2       7 UNK        -0.5100 
     40 CA         25.4818  -49.7198  -54.5431 C.3       6 UNK         0.0396 
     41 CB         24.6276  -50.6740  -53.6928 C.3       6 UNK        -0.1801 
     42 N          26.5590  -49.1815  -53.7110 N.am      6 UNK        -0.4747 
     43 C          27.3257  -48.1262  -54.0195 C.2       6 UNK         0.5012 
     44 O          27.2495  -47.5042  -55.0794 O.2       6 UNK        -0.5003 
     45 CA         28.3991  -47.7429  -52.9822 C.3       5 UNK         0.0782 
     46 C46        27.7751  -46.8632  -51.8701 C.3       11 UNK        -0.0868 
     47 S47        29.0212  -46.1381  -50.7492 S.3       11 UNK        -0.2515 
     48 C48        28.9232  -44.3614  -51.1561 C.3       11 UNK         0.0199 
     49 N          29.0963  -48.9178  -52.4403 N.am      5 UNK        -0.4607 
     50 C          29.7669  -49.8068  -53.1825 C.2       4 UNK         0.5031 
     51 O          29.8235  -49.7690  -54.4150 O.2       4 UNK        -0.5119 
     52 CA         30.4754  -50.9430  -52.4449 C.3       4 UNK         0.0263 
     53 CB         29.6188  -52.2199  -52.4359 C.3       4 UNK        -0.1967 
     54 N          31.7161  -51.1735  -53.1683 N.am      4 UNK        -0.4237 
     55 C          32.8892  -51.5212  -52.6326 C.2       3 UNK         0.4908 
     56 O          33.0314  -51.9036  -51.4704 O.2       3 UNK        -0.5102 
     57 CA         34.1240  -51.3797  -53.5439 C.3       3 UNK         0.0241 
     58 CB         34.4092  -52.7035  -54.2719 C.3       3 UNK        -0.1971 
     59 N          34.0149  -50.2934  -54.5302 N.am      3 UNK        -0.4139 
     60 C          33.8648  -48.9936  -54.2312 C.2       2 UNK         0.5016 
     61 O          33.8005  -48.5586  -53.0782 O.2       2 UNK        -0.5319 
     62 CA         33.7248  -48.0299  -55.4259 C.3       2 UNK         0.0286 
     63 CB         32.3215  -48.1337  -56.0469 C.3       2 UNK        -0.1963 
     64 N          33.9476  -46.6363  -55.0346 N.am      2 UNK        -0.4790 
     65 C          35.1311  -46.1194  -54.6811 C.2       1 UNK         0.5024 
     66 O          36.1990  -46.7337  -54.7604 O.2       1 UNK        -0.4888 
     67 H67        39.0970  -43.5470  -55.7127 H         1 UNK         0.0892 
     68 H68        38.7418  -43.0331  -54.0624 H         1 UNK         0.0892 
     69 H69        38.4011  -41.9515  -55.4141 H         1 UNK         0.0892 
     70 H70        36.9027  -44.0319  -53.2611 H         1 UNK         0.3107 
     71 H71        34.4199  -44.1111  -54.7460 H         1 UNK         0.0773 
     72 H72        33.5079  -45.1898  -52.6661 H         1 UNK         0.0680 
     73 H73        35.1154  -45.3235  -52.0153 H         1 UNK         0.0680 
     74 H74        32.8927  -41.2532  -52.5641 H         1 UNK         0.0650 
     75 H75        33.6282  -42.0077  -53.9507 H         1 UNK         0.0650 
     76 H76        31.3117  -43.0302  -51.1379 H         1 UNK         0.1397 
     77 H77        28.4929  -44.8581  -53.8059 H         1 UNK         0.1363 
     78 H78        32.1004  -43.1522  -55.3532 H         1 UNK         0.1355 
     79 H79        29.0545  -45.2398  -56.0741 H         1 UNK         0.0707 
     80 H80        30.7224  -45.0413  -56.5633 H         1 UNK         0.0707 
     81 H81        27.8564  -41.5093  -56.4017 H         1 UNK         0.1034 
     82 H82        27.7123  -42.9688  -55.4870 H         1 UNK         0.1034 
     83 H83        25.6972  -42.5828  -56.7928 H         1 UNK         0.0482 
     84 H84        26.0016  -40.5134  -57.9837 H         1 UNK         0.3460 
     85 H85        26.2076  -40.5960  -59.7130 H         1 UNK         0.3460 
     86 H86        27.1458  -45.0172  -57.0959 H         1 UNK         0.2989 
     87 H87        24.9124  -46.8073  -56.5562 H         1 UNK         0.0559 
     88 H88        24.2440  -47.0243  -59.5329 H         1 UNK         0.0848 
     89 H89        23.1024  -46.8916  -58.2053 H         1 UNK         0.0848 
     90 H90        24.0907  -48.3336  -58.3605 H         1 UNK         0.0848 
     91 H91        26.8869  -47.6222  -56.9376 H         1 UNK         0.3144 
     92 H92        28.7101  -48.4783  -59.8704 H         1 UNK         0.0727 
     93 H93        29.6760  -46.2498  -59.0005 H         1 UNK         0.0790 
     94 H94        30.6511  -47.6853  -58.7332 H         1 UNK         0.0790 
     95 H95        29.7166  -47.0055  -57.4074 H         1 UNK         0.0790 
     96 H96        28.6974  -49.0551  -56.9662 H         1 UNK         0.3215 
     97 H97        27.1470  -52.2309  -57.4226 H         1 UNK         0.0863 
     98 H98        29.0692  -52.8071  -55.9250 H         1 UNK         0.0808 
     99 H99        29.9245  -51.3585  -56.4566 H         1 UNK         0.0808 
    100 H100       29.5692  -52.6407  -57.5990 H         1 UNK         0.0808 
    101 H101       27.8704  -50.5813  -55.1457 H         1 UNK         0.3118 
    102 H102       24.8500  -48.8844  -54.8525 H         1 UNK         0.0546 
    103 H103       23.7888  -51.0672  -54.2691 H         1 UNK         0.0828 
    104 H104       24.2086  -50.1661  -52.8240 H         1 UNK         0.0828 
    105 H105       25.2066  -51.5276  -53.3382 H         1 UNK         0.0828 
    106 H106       26.7205  -49.6426  -52.8269 H         1 UNK         0.3005 
    107 H107       29.1486  -47.1545  -53.5151 H         1 UNK         0.1257 
    108 H108       27.0851  -47.4529  -51.2635 H         1 UNK         0.0775 
    109 H109       27.1709  -46.0624  -52.3001 H         1 UNK         0.0775 
    110 H110       27.8912  -44.0690  -51.3547 H         1 UNK         0.0840 
    111 H111       29.2266  -43.7935  -50.2752 H         1 UNK         0.0840 
    112 H112       29.1034  -49.0051  -51.4340 H         1 UNK         0.2987 
    113 H113       30.6926  -50.6295  -51.4213 H         1 UNK         0.0785 
    114 H114       28.6798  -52.0578  -51.9056 H         1 UNK         0.0798 
    115 H115       30.1370  -53.0384  -51.9360 H         1 UNK         0.0798 
    116 H116       29.3730  -52.5488  -53.4462 H         1 UNK         0.0798 
    117 H117       31.6922  -50.8407  -54.1240 H         1 UNK         0.3079 
    118 H118       34.9763  -51.1521  -52.9002 H         1 UNK         0.0794 
    119 H119       33.6026  -52.9714  -54.9556 H         1 UNK         0.0786 
    120 H120       34.5189  -53.5237  -53.5608 H         1 UNK         0.0786 
    121 H121       35.3344  -52.6505  -54.8462 H         1 UNK         0.0786 
    122 H122       34.0570  -50.5655  -55.5022 H         1 UNK         0.3032 
    123 H123       34.4704  -48.3022  -56.1767 H         1 UNK         0.1094 
    124 H124       31.5432  -47.8502  -55.3369 H         1 UNK         0.0794 
    125 H125       32.2339  -47.4834  -56.9165 H         1 UNK         0.0794 
    126 H126       32.1028  -49.1488  -56.3807 H         1 UNK         0.0794 
    127 H127       33.1184  -46.0791  -54.8908 H         1 UNK         0.3016 
@<TRIPOS>BOND
     1    1    2 1    
     2    1   67 1    
     3    1   68 1    
     4    1   69 1    
     5    2    3 2    
     6    2    4 am   BACKBONE|DICT|INTERRES
     7    4    5 1    
     8    4   70 1    
     9    5    6 1    
    10    5   65 1    
    11    5   71 1    
    12    6    7 1    
    13    6   72 1    
    14    6   73 1    
    15    7    8 1    
    16    8    9 1    
    17    8   74 1    
    18    8   75 1    
    19    9   10 ar   
    20    9   14 ar   
    21   10   11 ar   
    22   10   76 1    
    23   11   12 ar   
    24   11   48 1    
    25   12   13 ar   
    26   12   77 1    
    27   13   14 ar   
    28   13   15 1    
    29   14   78 1    
    30   15   16 1    
    31   15   79 1    
    32   15   80 1    
    33   16   17 1    
    34   17   18 1    
    35   17   81 1    
    36   17   82 1    
    37   18   19 1    
    38   18   22 1    
    39   18   83 1    
    40   19   20 am   BACKBONE|DICT|INTERRES
    41   19   21 2    
    42   20   84 1    
    43   20   85 1    
    44   22   23 am   BACKBONE|DICT|INTERRES
    45   22   86 1    
    46   23   24 2    
    47   23   25 1    
    48   25   26 1    
    49   25   27 1    
    50   25   87 1    
    51   26   88 1    
    52   26   89 1    
    53   26   90 1    
    54   27   28 am   BACKBONE|DICT|INTERRES
    55   27   91 1    
    56   28   29 2    
    57   28   30 1    
    58   30   31 1    
    59   30   32 1    
    60   30   92 1    
    61   31   93 1    
    62   31   94 1    
    63   31   95 1    
    64   32   33 am   BACKBONE|DICT|INTERRES
    65   32   96 1    
    66   33   34 2    
    67   33   35 1    
    68   35   36 1    
    69   35   37 1    
    70   35   97 1    
    71   36   98 1    
    72   36   99 1    
    73   36  100 1    
    74   37   38 am   BACKBONE|DICT|INTERRES
    75   37  101 1    
    76   38   39 2    
    77   38   40 1    
    78   40   41 1    
    79   40   42 1    
    80   40  102 1    
    81   41  103 1    
    82   41  104 1    
    83   41  105 1    
    84   42   43 am   BACKBONE|DICT|INTERRES
    85   42  106 1    
    86   43   44 2    
    87   43   45 1    
    88   45   46 1    
    89   45   49 1    
    90   45  107 1    
    91   46   47 1    
    92   46  108 1    
    93   46  109 1    
    94   47   48 1    
    95   48  110 1    
    96   48  111 1    
    97   49   50 am   BACKBONE|DICT|INTERRES
    98   49  112 1    
    99   50   51 2    
   100   50   52 1    
   101   52   53 1    
   102   52   54 1    
   103   52  113 1    
   104   53  114 1    
   105   53  115 1    
   106   53  116 1    
   107   54   55 am   BACKBONE|DICT|INTERRES
   108   54  117 1    
   109   55   56 2    
   110   55   57 1    
   111   57   58 1    
   112   57   59 1    
   113   57  118 1    
   114   58  119 1    
   115   58  120 1    
   116   58  121 1    
   117   59   60 am   BACKBONE|DICT|INTERRES
   118   59  122 1    
   119   60   61 2    
   120   60   62 1    
   121   62   63 1    
   122   62   64 1    
   123   62  123 1    
   124   63  124 1    
   125   63  125 1    
   126   63  126 1    
   127   64   65 am   BACKBONE|DICT|INTERRES
   128   64  127 1    
   129   65   66 2    
@<TRIPOS>SUBSTRUCTURE
     1 UNK         1 GROUP             0       ****    0 ROOT    
