@<TRIPOS>MOLECULE
3R134
127   129    1
SMALL
USER_CHARGES


@<TRIPOS>ATOM
      1 CA         28.9575  -43.9752  -51.4116 C.3       0 UNK        -0.1968 
      2 C          30.2315  -44.5066  -50.7729 C.2       0 UNK         0.4852 
      3 O          30.2727  -44.7090  -49.5578 O.2       0 UNK        -0.5359 
      4 N          31.2747  -44.7143  -51.5852 N.am      1 UNK        -0.4300 
      5 CA         32.5773  -45.2424  -51.1647 C.3       1 UNK         0.0863 
      6 C6         33.6790  -44.9394  -52.2124 C.3       11 UNK        -0.0953 
      7 S7         33.9238  -43.1467  -52.4339 S.3       11 UNK        -0.2369 
      8 C8         34.3988  -43.0491  -54.1910 C.3       11 UNK         0.0226 
      9 C9         33.2938  -43.4830  -55.1487 C.ar      11 UNK        -0.0699 
     10 C10        33.5885  -44.3600  -56.1976 C.ar      11 UNK        -0.0804 
     11 C11        32.5969  -44.7446  -57.1059 C.ar      11 UNK        -0.0871 
     12 C12        31.2984  -44.2478  -56.9557 C.ar      11 UNK        -0.1008 
     13 C13        30.9943  -43.3585  -55.9218 C.ar      11 UNK        -0.0735 
     14 C14        31.9943  -42.9802  -55.0216 C.ar      11 UNK        -0.0945 
     15 C15        29.5984  -42.7694  -55.8072 C.3       11 UNK         0.0169 
     16 S16        28.4330  -43.9433  -55.0555 S.3       11 UNK        -0.2669 
     17 C17        26.9627  -42.8731  -54.8720 C.3       11 UNK        -0.0850 
     18 CA         25.8387  -43.1457  -55.9063 C.3       10 UNK         0.0855 
     19 C          26.1957  -42.6574  -57.3420 C.2       10 UNK         0.5543 
     20 N          26.0452  -43.4714  -58.3800 N.am      10 UNK        -0.7343 
     21 O          26.6010  -41.5112  -57.5183 O.2       10 UNK        -0.5027 
     22 N          25.3678  -44.5359  -55.8255 N.am      10 UNK        -0.4495 
     23 C          24.1167  -44.9397  -56.0697 C.2       10 UNK         0.4903 
     24 O          23.1929  -44.1851  -56.3790 O.2       10 UNK        -0.4860 
     25 CA         23.8847  -46.4524  -55.9480 C.3       9 UNK         0.0227 
     26 CB         22.4035  -46.8644  -56.0931 C.3       9 UNK        -0.1964 
     27 N          24.7502  -47.2026  -56.8637 N.am      9 UNK        -0.4231 
     28 C          24.6979  -47.2459  -58.2062 C.2       9 UNK         0.5014 
     29 O          23.8974  -46.5967  -58.8798 O.2       9 UNK        -0.5270 
     30 CA         25.7088  -48.1552  -58.9437 C.3       8 UNK         0.0284 
     31 CB         26.6653  -47.3079  -59.8005 C.3       8 UNK        -0.1977 
     32 N          26.5076  -49.0098  -58.0609 N.am      8 UNK        -0.4342 
     33 C          26.0358  -50.0045  -57.2928 C.2       8 UNK         0.5039 
     34 O          24.8908  -50.4477  -57.3844 O.2       8 UNK        -0.5547 
     35 CA         26.9682  -50.5583  -56.1944 C.3       7 UNK         0.0281 
     36 CB         27.4245  -51.9827  -56.5465 C.3       7 UNK        -0.1963 
     37 N          28.1444  -49.7196  -55.9245 N.am      7 UNK        -0.4444 
     38 C          28.1174  -48.4445  -55.4980 C.2       7 UNK         0.5104 
     39 O          27.0794  -47.8608  -55.1817 O.2       7 UNK        -0.5100 
     40 CA         29.4435  -47.6587  -55.5046 C.3       6 UNK         0.0396 
     41 CB         29.9115  -47.3581  -54.0746 C.3       6 UNK        -0.1801 
     42 N          30.5210  -48.3193  -56.2482 N.am      6 UNK        -0.4747 
     43 C          30.5311  -48.5076  -57.5794 C.2       6 UNK         0.5012 
     44 O          29.6269  -48.1191  -58.3205 O.2       6 UNK        -0.5003 
     45 CA         31.7077  -49.3106  -58.1835 C.3       5 UNK         0.0782 
     46 C46        32.7389  -48.4002  -58.8928 C.3       11 UNK        -0.0868 
     47 S47        33.6061  -47.2582  -57.7575 S.3       11 UNK        -0.2515 
     48 C48        32.9356  -45.6470  -58.2840 C.3       11 UNK         0.0199 
     49 N          32.3605  -50.2034  -57.2216 N.am      5 UNK        -0.4607 
     50 C          31.7780  -51.2428  -56.6114 C.2       4 UNK         0.5031 
     51 O          30.6191  -51.5930  -56.8290 O.2       4 UNK        -0.5119 
     52 CA         32.6082  -51.9976  -55.5574 C.3       4 UNK         0.0263 
     53 CB         33.2031  -53.2779  -56.1653 C.3       4 UNK        -0.1967 
     54 N          33.6836  -51.2099  -54.9387 N.am      4 UNK        -0.4237 
     55 C          33.5087  -50.0790  -54.2406 C.2       3 UNK         0.4908 
     56 O          32.4228  -49.5094  -54.1174 O.2       3 UNK        -0.5102 
     57 CA         34.7698  -49.4549  -53.6209 C.3       3 UNK         0.0241 
     58 CB         35.3350  -48.3664  -54.5488 C.3       3 UNK        -0.1971 
     59 N          34.4931  -48.8629  -52.3118 N.am      3 UNK        -0.4139 
     60 C          34.1182  -49.5353  -51.2136 C.2       2 UNK         0.5016 
     61 O          34.0589  -50.7645  -51.1520 O.2       2 UNK        -0.5319 
     62 CA         33.7669  -48.7042  -49.9617 C.3       2 UNK         0.0286 
     63 CB         34.8543  -48.8638  -48.8856 C.3       2 UNK        -0.1963 
     64 N          33.5755  -47.2739  -50.2345 N.am      2 UNK        -0.4790 
     65 C          32.5128  -46.7558  -50.8670 C.2       1 UNK         0.5024 
     66 O          31.5509  -47.4315  -51.2369 O.2       1 UNK        -0.4888 
     67 H67        28.3500  -43.4474  -50.6770 H         1 UNK         0.0892 
     68 H68        29.1851  -43.2785  -52.2180 H         1 UNK         0.0892 
     69 H69        28.3668  -44.7957  -51.8184 H         1 UNK         0.0892 
     70 H70        31.1756  -44.5433  -52.5752 H         1 UNK         0.3107 
     71 H71        32.8507  -44.7466  -50.2304 H         1 UNK         0.0773 
     72 H72        33.4309  -45.4036  -53.1689 H         1 UNK         0.0680 
     73 H73        34.6414  -45.3558  -51.9102 H         1 UNK         0.0680 
     74 H74        34.6723  -42.0187  -54.4209 H         1 UNK         0.0650 
     75 H75        35.2987  -43.6482  -54.3389 H         1 UNK         0.0650 
     76 H76        34.5948  -44.7372  -56.3192 H         1 UNK         0.1397 
     77 H77        30.5239  -44.5326  -57.6552 H         1 UNK         0.1363 
     78 H78        31.7657  -42.2825  -54.2276 H         1 UNK         0.1355 
     79 H79        29.6257  -41.8541  -55.2137 H         1 UNK         0.0707 
     80 H80        29.2388  -42.4845  -56.7970 H         1 UNK         0.0707 
     81 H81        26.5678  -43.0349  -53.8679 H         1 UNK         0.1034 
     82 H82        27.2551  -41.8216  -54.8917 H         1 UNK         0.1034 
     83 H83        25.0040  -42.5084  -55.6080 H         1 UNK         0.0482 
     84 H84        25.6688  -44.3962  -58.2493 H         1 UNK         0.3460 
     85 H85        26.2712  -43.1402  -59.3042 H         1 UNK         0.3460 
     86 H86        26.0732  -45.2235  -55.5982 H         1 UNK         0.2989 
     87 H87        24.1984  -46.7324  -54.9410 H         1 UNK         0.0559 
     88 H88        21.9888  -46.5774  -57.0598 H         1 UNK         0.0848 
     89 H89        21.7921  -46.3860  -55.3271 H         1 UNK         0.0848 
     90 H90        22.2792  -47.9416  -55.9816 H         1 UNK         0.0848 
     91 H91        25.5031  -47.7091  -56.4072 H         1 UNK         0.3144 
     92 H92        25.1336  -48.8042  -59.6070 H         1 UNK         0.0727 
     93 H93        26.1151  -46.6916  -60.5130 H         1 UNK         0.0790 
     94 H94        27.3453  -47.9361  -60.3764 H         1 UNK         0.0790 
     95 H95        27.2694  -46.6377  -59.1870 H         1 UNK         0.0790 
     96 H96        27.4785  -48.7423  -57.9475 H         1 UNK         0.3215 
     97 H97        26.3838  -50.6039  -55.2731 H         1 UNK         0.0863 
     98 H98        28.0425  -52.4105  -55.7568 H         1 UNK         0.0808 
     99 H99        28.0006  -52.0030  -57.4724 H         1 UNK         0.0808 
    100 H100       26.5685  -52.6454  -56.6817 H         1 UNK         0.0808 
    101 H101       29.0431  -50.1217  -56.1649 H         1 UNK         0.3118 
    102 H102       29.2466  -46.7054  -55.9985 H         1 UNK         0.0546 
    103 H103       30.8269  -46.7659  -54.0726 H         1 UNK         0.0828 
    104 H104       30.1028  -48.2721  -53.5115 H         1 UNK         0.0828 
    105 H105       29.1584  -46.7901  -53.5273 H         1 UNK         0.0828 
    106 H106       31.2879  -48.6893  -55.6946 H         1 UNK         0.3005 
    107 H107       31.2630  -49.9522  -58.9481 H         1 UNK         0.1257 
    108 H108       33.4953  -49.0194  -59.3777 H         1 UNK         0.0775 
    109 H109       32.2628  -47.8508  -59.7064 H         1 UNK         0.0775 
    110 H110       33.6698  -45.1491  -58.9188 H         1 UNK         0.0840 
    111 H111       32.0484  -45.7900  -58.9019 H         1 UNK         0.0840 
    112 H112       33.3083  -49.9649  -56.9699 H         1 UNK         0.2987 
    113 H113       31.9196  -52.2862  -54.7603 H         1 UNK         0.0785 
    114 H114       33.9274  -53.0540  -56.9496 H         1 UNK         0.0798 
    115 H115       32.4232  -53.8982  -56.6098 H         1 UNK         0.0798 
    116 H116       33.7017  -53.8838  -55.4084 H         1 UNK         0.0798 
    117 H117       34.6150  -51.5948  -55.0082 H         1 UNK         0.3079 
    118 H118       35.5240  -50.2328  -53.4853 H         1 UNK         0.0794 
    119 H119       34.6185  -47.5583  -54.7061 H         1 UNK         0.0786 
    120 H120       35.5819  -48.7755  -55.5294 H         1 UNK         0.0786 
    121 H121       36.2482  -47.9309  -54.1427 H         1 UNK         0.0786 
    122 H122       34.4887  -47.8566  -52.2647 H         1 UNK         0.3032 
    123 H123       32.8314  -49.1067  -49.5659 H         1 UNK         0.1094 
    124 H124       34.5838  -48.3433  -47.9667 H         1 UNK         0.0794 
    125 H125       34.9987  -49.9143  -48.6286 H         1 UNK         0.0794 
    126 H126       35.8167  -48.4763  -49.2224 H         1 UNK         0.0794 
    127 H127       34.3225  -46.6571  -49.9461 H         1 UNK         0.3016 
@<TRIPOS>BOND
     1    1    2 1    
     2    1   67 1    
     3    1   68 1    
     4    1   69 1    
     5    2    3 2    
     6    2    4 am   BACKBONE|DICT|INTERRES
     7    4    5 1    
     8    4   70 1    
     9    5    6 1    
    10    5   65 1    
    11    5   71 1    
    12    6    7 1    
    13    6   72 1    
    14    6   73 1    
    15    7    8 1    
    16    8    9 1    
    17    8   74 1    
    18    8   75 1    
    19    9   10 ar   
    20    9   14 ar   
    21   10   11 ar   
    22   10   76 1    
    23   11   12 ar   
    24   11   48 1    
    25   12   13 ar   
    26   12   77 1    
    27   13   14 ar   
    28   13   15 1    
    29   14   78 1    
    30   15   16 1    
    31   15   79 1    
    32   15   80 1    
    33   16   17 1    
    34   17   18 1    
    35   17   81 1    
    36   17   82 1    
    37   18   19 1    
    38   18   22 1    
    39   18   83 1    
    40   19   20 am   BACKBONE|DICT|INTERRES
    41   19   21 2    
    42   20   84 1    
    43   20   85 1    
    44   22   23 am   BACKBONE|DICT|INTERRES
    45   22   86 1    
    46   23   24 2    
    47   23   25 1    
    48   25   26 1    
    49   25   27 1    
    50   25   87 1    
    51   26   88 1    
    52   26   89 1    
    53   26   90 1    
    54   27   28 am   BACKBONE|DICT|INTERRES
    55   27   91 1    
    56   28   29 2    
    57   28   30 1    
    58   30   31 1    
    59   30   32 1    
    60   30   92 1    
    61   31   93 1    
    62   31   94 1    
    63   31   95 1    
    64   32   33 am   BACKBONE|DICT|INTERRES
    65   32   96 1    
    66   33   34 2    
    67   33   35 1    
    68   35   36 1    
    69   35   37 1    
    70   35   97 1    
    71   36   98 1    
    72   36   99 1    
    73   36  100 1    
    74   37   38 am   BACKBONE|DICT|INTERRES
    75   37  101 1    
    76   38   39 2    
    77   38   40 1    
    78   40   41 1    
    79   40   42 1    
    80   40  102 1    
    81   41  103 1    
    82   41  104 1    
    83   41  105 1    
    84   42   43 am   BACKBONE|DICT|INTERRES
    85   42  106 1    
    86   43   44 2    
    87   43   45 1    
    88   45   46 1    
    89   45   49 1    
    90   45  107 1    
    91   46   47 1    
    92   46  108 1    
    93   46  109 1    
    94   47   48 1    
    95   48  110 1    
    96   48  111 1    
    97   49   50 am   BACKBONE|DICT|INTERRES
    98   49  112 1    
    99   50   51 2    
   100   50   52 1    
   101   52   53 1    
   102   52   54 1    
   103   52  113 1    
   104   53  114 1    
   105   53  115 1    
   106   53  116 1    
   107   54   55 am   BACKBONE|DICT|INTERRES
   108   54  117 1    
   109   55   56 2    
   110   55   57 1    
   111   57   58 1    
   112   57   59 1    
   113   57  118 1    
   114   58  119 1    
   115   58  120 1    
   116   58  121 1    
   117   59   60 am   BACKBONE|DICT|INTERRES
   118   59  122 1    
   119   60   61 2    
   120   60   62 1    
   121   62   63 1    
   122   62   64 1    
   123   62  123 1    
   124   63  124 1    
   125   63  125 1    
   126   63  126 1    
   127   64   65 am   BACKBONE|DICT|INTERRES
   128   64  127 1    
   129   65   66 2    
@<TRIPOS>SUBSTRUCTURE
     1 UNK         1 GROUP             0       ****    0 ROOT    
