@<TRIPOS>MOLECULE
3R134
127   129    1
SMALL
USER_CHARGES


@<TRIPOS>ATOM
      1 CA         30.5508  -44.9985  -46.5451 C.3       0 UNK        -0.1968 
      2 C          31.6469  -45.4436  -47.5026 C.2       0 UNK         0.4852 
      3 O          32.6234  -46.0578  -47.0694 O.2       0 UNK        -0.5359 
      4 N          31.4965  -45.1316  -48.7966 N.am      1 UNK        -0.4300 
      5 CA         32.4106  -45.5394  -49.8674 C.3       1 UNK         0.0863 
      6 C6         32.2030  -44.6695  -51.1334 C.3       11 UNK        -0.0953 
      7 S7         33.6806  -44.6416  -52.1994 S.3       11 UNK        -0.2369 
      8 C8         33.3797  -43.1489  -53.1961 C.3       11 UNK         0.0226 
      9 C9         32.6015  -43.4616  -54.4658 C.ar      11 UNK        -0.0699 
     10 C10        33.2835  -43.9288  -55.5933 C.ar      11 UNK        -0.0804 
     11 C11        32.5969  -44.1805  -56.7829 C.ar      11 UNK        -0.0871 
     12 C12        31.2202  -43.9659  -56.8348 C.ar      11 UNK        -0.1008 
     13 C13        30.5152  -43.5197  -55.7145 C.ar      11 UNK        -0.0735 
     14 C14        31.2165  -43.2649  -54.5289 C.ar      11 UNK        -0.0945 
     15 C15        28.9972  -43.3621  -55.7677 C.3       11 UNK         0.0169 
     16 S16        28.4237  -42.1623  -57.0161 S.3       11 UNK        -0.2669 
     17 C17        28.1044  -43.2052  -58.4883 C.3       11 UNK        -0.0850 
     18 CA         26.6345  -43.6832  -58.5835 C.3       10 UNK         0.0855 
     19 C          26.3288  -44.2619  -59.9887 C.2       10 UNK         0.5543 
     20 N          25.6083  -43.5250  -60.8225 N.am      10 UNK        -0.7343 
     21 O          26.7772  -45.3503  -60.3429 O.2       10 UNK        -0.5027 
     22 N          26.3408  -44.6879  -57.5563 N.am      10 UNK        -0.4495 
     23 C          25.1434  -44.8608  -56.9870 C.2       10 UNK         0.4903 
     24 O          24.1631  -44.1505  -57.2192 O.2       10 UNK        -0.4860 
     25 CA         25.0377  -46.0211  -55.9809 C.3       9 UNK         0.0227 
     26 CB         23.6042  -46.2448  -55.4533 C.3       9 UNK        -0.1964 
     27 N          25.6097  -47.2696  -56.4968 N.am      9 UNK        -0.4231 
     28 C          25.2082  -47.9750  -57.5673 C.2       9 UNK         0.5014 
     29 O          24.2544  -47.6562  -58.2788 O.2       9 UNK        -0.5270 
     30 CA         25.9903  -49.2580  -57.9219 C.3       8 UNK         0.0284 
     31 CB         26.7460  -49.0719  -59.2483 C.3       8 UNK        -0.1977 
     32 N          26.9376  -49.6908  -56.8899 N.am      8 UNK        -0.4342 
     33 C          26.6040  -50.2098  -55.6999 C.2       8 UNK         0.5039 
     34 O          25.4486  -50.4776  -55.3690 O.2       8 UNK        -0.5547 
     35 CA         27.7466  -50.4124  -54.6877 C.3       7 UNK         0.0281 
     36 CB         28.3959  -51.7940  -54.8644 C.3       7 UNK        -0.1963 
     37 N          28.7763  -49.3698  -54.7663 N.am      7 UNK        -0.4444 
     38 C          28.5676  -48.0653  -54.5333 C.2       7 UNK         0.5104 
     39 O          27.4847  -47.5971  -54.1855 O.2       7 UNK        -0.5100 
     40 CA         29.7421  -47.1133  -54.7986 C.3       6 UNK         0.0396 
     41 CB         30.7397  -47.1132  -53.6342 C.3       6 UNK        -0.1801 
     42 N          30.4192  -47.4302  -56.0565 N.am      6 UNK        -0.4747 
     43 C          29.9066  -47.1841  -57.2719 C.2       6 UNK         0.5012 
     44 O          28.8402  -46.5922  -57.4531 O.2       6 UNK        -0.5003 
     45 CA         30.6867  -47.7329  -58.4875 C.3       5 UNK         0.0782 
     46 C46        31.6452  -46.6878  -59.1150 C.3       11 UNK        -0.0868 
     47 S47        33.2248  -46.4718  -58.2117 S.3       11 UNK        -0.2515 
     48 C48        33.3405  -44.6662  -58.0174 C.3       11 UNK         0.0199 
     49 N          31.3840  -48.9872  -58.1913 N.am      5 UNK        -0.4607 
     50 C          30.7951  -50.1587  -57.9272 C.2       4 UNK         0.5031 
     51 O          29.5777  -50.3311  -57.9496 O.2       4 UNK        -0.5119 
     52 CA         31.7278  -51.3098  -57.5089 C.3       4 UNK         0.0263 
     53 CB         32.3256  -52.0001  -58.7449 C.3       4 UNK        -0.1967 
     54 N          32.8067  -50.8656  -56.6151 N.am      4 UNK        -0.4237 
     55 C          32.5944  -50.3538  -55.3957 C.2       3 UNK         0.4908 
     56 O          31.4732  -50.2529  -54.8891 O.2       3 UNK        -0.5102 
     57 CA         33.8113  -49.8105  -54.6364 C.3       3 UNK         0.0241 
     58 CB         34.2468  -48.4569  -55.2389 C.3       3 UNK        -0.1971 
     59 N          33.4068  -49.6574  -53.2408 N.am      3 UNK        -0.4139 
     60 C          34.1467  -49.2466  -52.2076 C.2       2 UNK         0.5016 
     61 O          35.3414  -48.9495  -52.2759 O.2       2 UNK        -0.5319 
     62 CA         33.4176  -49.1260  -50.8653 C.3       2 UNK         0.0286 
     63 CB         34.1404  -49.9103  -49.7559 C.3       2 UNK        -0.1963 
     64 N          33.3636  -47.7113  -50.5053 N.am      2 UNK        -0.4790 
     65 C          32.2529  -47.0462  -50.1681 C.2       1 UNK         0.5024 
     66 O          31.1358  -47.5666  -50.1058 O.2       1 UNK        -0.4888 
     67 H67        29.7573  -44.4544  -47.0571 H         1 UNK         0.0892 
     68 H68        30.1063  -45.8647  -46.0558 H         1 UNK         0.0892 
     69 H69        30.9658  -44.3477  -45.7759 H         1 UNK         0.0892 
     70 H70        30.6562  -44.6581  -49.0955 H         1 UNK         0.3107 
     71 H71        33.4245  -45.3703  -49.4964 H         1 UNK         0.0773 
     72 H72        32.0036  -43.6393  -50.8340 H         1 UNK         0.0680 
     73 H73        31.3331  -44.9841  -51.7104 H         1 UNK         0.0680 
     74 H74        34.3440  -42.7142  -53.4634 H         1 UNK         0.0650 
     75 H75        32.8659  -42.3903  -52.6041 H         1 UNK         0.0650 
     76 H76        34.3521  -44.0885  -55.5445 H         1 UNK         0.1397 
     77 H77        30.7005  -44.1607  -57.7549 H         1 UNK         0.1363 
     78 H78        30.6869  -42.9169  -53.6528 H         1 UNK         0.1355 
     79 H79        28.5368  -44.3291  -55.9598 H         1 UNK         0.0707 
     80 H80        28.6202  -43.0397  -54.7961 H         1 UNK         0.0707 
     81 H81        28.3631  -42.6018  -59.3608 H         1 UNK         0.1034 
     82 H82        28.7673  -44.0671  -58.5178 H         1 UNK         0.1034 
     83 H83        25.9937  -42.8130  -58.4245 H         1 UNK         0.0482 
     84 H84        25.2430  -42.6277  -60.5429 H         1 UNK         0.3460 
     85 H85        25.4139  -43.8792  -61.7460 H         1 UNK         0.3460 
     86 H86        27.0751  -45.3651  -57.3814 H         1 UNK         0.2989 
     87 H87        25.6556  -45.7362  -55.1284 H         1 UNK         0.0559 
     88 H88        22.9079  -46.4890  -56.2562 H         1 UNK         0.0848 
     89 H89        23.2267  -45.3490  -54.9589 H         1 UNK         0.0848 
     90 H90        23.5728  -47.0543  -54.7241 H         1 UNK         0.0848 
     91 H91        26.3984  -47.6215  -55.9658 H         1 UNK         0.3144 
     92 H92        25.2568  -50.0554  -58.0576 H         1 UNK         0.0727 
     93 H93        27.2756  -49.9795  -59.5383 H         1 UNK         0.0790 
     94 H94        27.4720  -48.2612  -59.1855 H         1 UNK         0.0790 
     95 H95        26.0584  -48.8252  -60.0585 H         1 UNK         0.0790 
     96 H96        27.9251  -49.6102  -57.1159 H         1 UNK         0.3215 
     97 H97        27.3106  -50.3659  -53.6875 H         1 UNK         0.0863 
     98 H98        29.1702  -51.9675  -54.1168 H         1 UNK         0.0808 
     99 H99        28.8514  -51.9039  -55.8485 H         1 UNK         0.0808 
    100 H100       27.6562  -52.5884  -54.7571 H         1 UNK         0.0808 
    101 H101       29.7198  -49.6754  -54.9969 H         1 UNK         0.3118 
    102 H102       29.3375  -46.1052  -54.8720 H         1 UNK         0.0546 
    103 H103       30.2441  -46.8118  -52.7112 H         1 UNK         0.0828 
    104 H104       31.5582  -46.4152  -53.8116 H         1 UNK         0.0828 
    105 H105       31.1654  -48.0975  -53.4572 H         1 UNK         0.0828 
    106 H106       31.2866  -47.9412  -55.9960 H         1 UNK         0.3005 
    107 H107       29.9287  -47.9628  -59.2400 H         1 UNK         0.1257 
    108 H108       31.1410  -45.7320  -59.2565 H         1 UNK         0.0775 
    109 H109       31.9062  -47.0153  -60.1225 H         1 UNK         0.0775 
    110 H110       34.3948  -44.3944  -57.9454 H         1 UNK         0.0840 
    111 H111       32.9646  -44.1662  -58.9113 H         1 UNK         0.0840 
    112 H112       32.3908  -48.9252  -58.1486 H         1 UNK         0.2987 
    113 H113       31.1246  -52.0422  -56.9681 H         1 UNK         0.0785 
    114 H114       31.5379  -52.3506  -59.4135 H         1 UNK         0.0798 
    115 H115       32.9199  -52.8699  -58.4645 H         1 UNK         0.0798 
    116 H116       32.9641  -51.3270  -59.3183 H         1 UNK         0.0798 
    117 H117       33.7510  -50.9232  -56.9696 H         1 UNK         0.3079 
    118 H118       34.6261  -50.5344  -54.6950 H         1 UNK         0.0794 
    119 H119       33.4630  -47.7031  -55.1550 H         1 UNK         0.0786 
    120 H120       34.4951  -48.5556  -56.2960 H         1 UNK         0.0786 
    121 H121       35.1356  -48.0621  -54.7477 H         1 UNK         0.0786 
    122 H122       32.4318  -49.8959  -53.0985 H         1 UNK         0.3032 
    123 H123       32.4113  -49.5384  -50.9719 H         1 UNK         0.1094 
    124 H124       35.1536  -49.5415  -49.5907 H         1 UNK         0.0794 
    125 H125       33.6025  -49.8412  -48.8102 H         1 UNK         0.0794 
    126 H126       34.2146  -50.9682  -50.0113 H         1 UNK         0.0794 
    127 H127       34.2322  -47.2028  -50.6103 H         1 UNK         0.3016 
@<TRIPOS>BOND
     1    1    2 1    
     2    1   67 1    
     3    1   68 1    
     4    1   69 1    
     5    2    3 2    
     6    2    4 am   BACKBONE|DICT|INTERRES
     7    4    5 1    
     8    4   70 1    
     9    5    6 1    
    10    5   65 1    
    11    5   71 1    
    12    6    7 1    
    13    6   72 1    
    14    6   73 1    
    15    7    8 1    
    16    8    9 1    
    17    8   74 1    
    18    8   75 1    
    19    9   10 ar   
    20    9   14 ar   
    21   10   11 ar   
    22   10   76 1    
    23   11   12 ar   
    24   11   48 1    
    25   12   13 ar   
    26   12   77 1    
    27   13   14 ar   
    28   13   15 1    
    29   14   78 1    
    30   15   16 1    
    31   15   79 1    
    32   15   80 1    
    33   16   17 1    
    34   17   18 1    
    35   17   81 1    
    36   17   82 1    
    37   18   19 1    
    38   18   22 1    
    39   18   83 1    
    40   19   20 am   BACKBONE|DICT|INTERRES
    41   19   21 2    
    42   20   84 1    
    43   20   85 1    
    44   22   23 am   BACKBONE|DICT|INTERRES
    45   22   86 1    
    46   23   24 2    
    47   23   25 1    
    48   25   26 1    
    49   25   27 1    
    50   25   87 1    
    51   26   88 1    
    52   26   89 1    
    53   26   90 1    
    54   27   28 am   BACKBONE|DICT|INTERRES
    55   27   91 1    
    56   28   29 2    
    57   28   30 1    
    58   30   31 1    
    59   30   32 1    
    60   30   92 1    
    61   31   93 1    
    62   31   94 1    
    63   31   95 1    
    64   32   33 am   BACKBONE|DICT|INTERRES
    65   32   96 1    
    66   33   34 2    
    67   33   35 1    
    68   35   36 1    
    69   35   37 1    
    70   35   97 1    
    71   36   98 1    
    72   36   99 1    
    73   36  100 1    
    74   37   38 am   BACKBONE|DICT|INTERRES
    75   37  101 1    
    76   38   39 2    
    77   38   40 1    
    78   40   41 1    
    79   40   42 1    
    80   40  102 1    
    81   41  103 1    
    82   41  104 1    
    83   41  105 1    
    84   42   43 am   BACKBONE|DICT|INTERRES
    85   42  106 1    
    86   43   44 2    
    87   43   45 1    
    88   45   46 1    
    89   45   49 1    
    90   45  107 1    
    91   46   47 1    
    92   46  108 1    
    93   46  109 1    
    94   47   48 1    
    95   48  110 1    
    96   48  111 1    
    97   49   50 am   BACKBONE|DICT|INTERRES
    98   49  112 1    
    99   50   51 2    
   100   50   52 1    
   101   52   53 1    
   102   52   54 1    
   103   52  113 1    
   104   53  114 1    
   105   53  115 1    
   106   53  116 1    
   107   54   55 am   BACKBONE|DICT|INTERRES
   108   54  117 1    
   109   55   56 2    
   110   55   57 1    
   111   57   58 1    
   112   57   59 1    
   113   57  118 1    
   114   58  119 1    
   115   58  120 1    
   116   58  121 1    
   117   59   60 am   BACKBONE|DICT|INTERRES
   118   59  122 1    
   119   60   61 2    
   120   60   62 1    
   121   62   63 1    
   122   62   64 1    
   123   62  123 1    
   124   63  124 1    
   125   63  125 1    
   126   63  126 1    
   127   64   65 am   BACKBONE|DICT|INTERRES
   128   64  127 1    
   129   65   66 2    
@<TRIPOS>SUBSTRUCTURE
     1 UNK         1 GROUP             0       ****    0 ROOT    
