@<TRIPOS>MOLECULE
3R134
127   129    1
SMALL
USER_CHARGES


@<TRIPOS>ATOM
      1 CA         33.3227  -45.2250  -46.6197 C.3       0 UNK        -0.1968 
      2 C          33.8895  -45.4687  -48.0108 C.2       0 UNK         0.4852 
      3 O          35.1043  -45.6133  -48.1590 O.2       0 UNK        -0.5359 
      4 N          33.0211  -45.5059  -49.0295 N.am      1 UNK        -0.4300 
      5 CA         33.3737  -45.7729  -50.4279 C.3       1 UNK         0.0863 
      6 C6         32.2191  -45.4219  -51.3971 C.3       11 UNK        -0.0953 
      7 S7         31.5261  -43.7486  -51.1684 S.3       11 UNK        -0.2369 
      8 C8         32.2810  -42.8069  -52.5330 C.3       11 UNK         0.0226 
      9 C9         31.7299  -43.1769  -53.9066 C.ar      11 UNK        -0.0699 
     10 C10        32.5978  -43.6281  -54.9065 C.ar      11 UNK        -0.0804 
     11 C11        32.1174  -43.9129  -56.1876 C.ar      11 UNK        -0.0871 
     12 C12        30.7582  -43.7597  -56.4573 C.ar      11 UNK        -0.1008 
     13 C13        29.8693  -43.3315  -55.4698 C.ar      11 UNK        -0.0735 
     14 C14        30.3668  -43.0287  -54.1961 C.ar      11 UNK        -0.0945 
     15 C15        28.3725  -43.2471  -55.7597 C.3       11 UNK         0.0169 
     16 S16        27.9399  -42.0967  -57.1067 S.3       11 UNK        -0.2669 
     17 C17        27.8913  -43.1715  -58.5910 C.3       11 UNK        -0.0850 
     18 CA         26.4836  -43.7625  -58.8725 C.3       10 UNK         0.0855 
     19 C          26.3391  -44.2667  -60.3408 C.2       10 UNK         0.5543 
     20 N          25.7989  -45.4524  -60.5997 N.am      10 UNK        -0.7343 
     21 O          26.7106  -43.5584  -61.2733 O.2       10 UNK        -0.5027 
     22 N          26.1360  -44.7877  -57.8762 N.am      10 UNK        -0.4495 
     23 C          24.9197  -44.9577  -57.3468 C.2       10 UNK         0.4903 
     24 O          23.9589  -44.2235  -57.5850 O.2       10 UNK        -0.4860 
     25 CA         24.7544  -46.1617  -56.3987 C.3       9 UNK         0.0227 
     26 CB         23.2791  -46.4566  -56.0553 C.3       9 UNK        -0.1964 
     27 N          25.4187  -47.3819  -56.8758 N.am      9 UNK        -0.4231 
     28 C          25.2245  -48.0195  -58.0425 C.2       9 UNK         0.5014 
     29 O          24.4721  -47.6042  -58.9247 O.2       9 UNK        -0.5270 
     30 CA         26.0090  -49.3246  -58.3004 C.3       8 UNK         0.0284 
     31 CB         26.9216  -49.1686  -59.5290 C.3       8 UNK        -0.1977 
     32 N          26.8233  -49.7653  -57.1657 N.am      8 UNK        -0.4342 
     33 C          26.3630  -50.3100  -56.0312 C.2       8 UNK         0.5039 
     34 O          25.1873  -50.6234  -55.8462 O.2       8 UNK        -0.5547 
     35 CA         27.3799  -50.4503  -54.8839 C.3       7 UNK         0.0281 
     36 CB         28.1251  -51.7934  -54.9512 C.3       7 UNK        -0.1963 
     37 N          28.3389  -49.3385  -54.8759 N.am      7 UNK        -0.4444 
     38 C          28.0181  -48.0797  -54.5424 C.2       7 UNK         0.5104 
     39 O          26.9062  -47.7484  -54.1338 O.2       7 UNK        -0.5100 
     40 CA         29.0840  -46.9965  -54.7494 C.3       6 UNK         0.0396 
     41 CB         29.9157  -46.7950  -53.4825 C.3       6 UNK        -0.1801 
     42 N          29.9687  -47.2787  -55.8791 N.am      6 UNK        -0.4747 
     43 C          29.6519  -47.0507  -57.1619 C.2       6 UNK         0.5012 
     44 O          28.5931  -46.5274  -57.5179 O.2       6 UNK        -0.5003 
     45 CA         30.6559  -47.5369  -58.2329 C.3       5 UNK         0.0782 
     46 C46        31.6463  -46.4269  -58.6742 C.3       11 UNK        -0.0868 
     47 S47        33.0468  -46.1647  -57.5182 S.3       11 UNK        -0.2515 
     48 C48        33.0651  -44.3595  -57.2907 C.3       11 UNK         0.0199 
     49 N          31.3740  -48.7542  -57.8463 N.am      5 UNK        -0.4607 
     50 C          30.8312  -49.9281  -57.5119 C.2       4 UNK         0.5031 
     51 O          29.6231  -50.1544  -57.5549 O.2       4 UNK        -0.5119 
     52 CA         31.7887  -51.0130  -56.9864 C.3       4 UNK         0.0263 
     53 CB         33.2361  -50.8573  -57.5056 C.3       4 UNK        -0.1967 
     54 N          31.7886  -51.1078  -55.5191 N.am      4 UNK        -0.4237 
     55 C          32.0133  -50.1254  -54.6302 C.2       3 UNK         0.4908 
     56 O          32.1519  -48.9399  -54.9365 O.2       3 UNK        -0.5102 
     57 CA         32.0650  -50.5137  -53.1365 C.3       3 UNK         0.0241 
     58 CB         32.2001  -52.0327  -52.8824 C.3       3 UNK        -0.1971 
     59 N          33.1083  -49.7781  -52.4066 N.am      3 UNK        -0.4139 
     60 C          34.4225  -49.7391  -52.6770 C.2       2 UNK         0.5016 
     61 O          34.9506  -50.3705  -53.5952 O.2       2 UNK        -0.5319 
     62 CA         35.2992  -48.8559  -51.7591 C.3       2 UNK         0.0286 
     63 CB         36.7320  -48.6833  -52.2998 C.3       2 UNK        -0.1963 
     64 N          34.7359  -47.5236  -51.4995 N.am      2 UNK        -0.4790 
     65 C          33.7745  -47.2531  -50.6079 C.2       1 UNK         0.5024 
     66 O          33.1805  -48.1295  -49.9741 O.2       1 UNK        -0.4888 
     67 H67        32.2402  -45.0994  -46.6366 H         1 UNK         0.0892 
     68 H68        33.5562  -46.0659  -45.9673 H         1 UNK         0.0892 
     69 H69        33.7612  -44.3258  -46.1879 H         1 UNK         0.0892 
     70 H70        32.0347  -45.3881  -48.8485 H         1 UNK         0.3107 
     71 H71        34.2337  -45.1479  -50.6783 H         1 UNK         0.0773 
     72 H72        31.3947  -46.1225  -51.2562 H         1 UNK         0.0680 
     73 H73        32.5504  -45.5358  -52.4307 H         1 UNK         0.0680 
     74 H74        33.3634  -42.9390  -52.4940 H         1 UNK         0.0650 
     75 H75        32.0975  -41.7454  -52.3622 H         1 UNK         0.0650 
     76 H76        33.6524  -43.7398  -54.6945 H         1 UNK         0.1397 
     77 H77        30.3964  -43.9838  -57.4437 H         1 UNK         0.1363 
     78 H78        29.6939  -42.6881  -53.4211 H         1 UNK         0.1355 
     79 H79        27.9942  -44.2369  -56.0030 H         1 UNK         0.0707 
     80 H80        27.8346  -42.9324  -54.8643 H         1 UNK         0.0707 
     81 H81        28.2227  -42.5487  -59.4238 H         1 UNK         0.1034 
     82 H82        28.6150  -43.9801  -58.5245 H         1 UNK         0.1034 
     83 H83        25.7721  -42.9385  -58.7945 H         1 UNK         0.0482 
     84 H84        25.4289  -46.0365  -59.8593 H         1 UNK         0.3460 
     85 H85        25.7108  -45.7486  -61.5584 H         1 UNK         0.3460 
     86 H86        26.8666  -45.4610  -57.6661 H         1 UNK         0.2989 
     87 H87        25.2583  -45.8849  -55.4717 H         1 UNK         0.0559 
     88 H88        22.6996  -46.7061  -56.9450 H         1 UNK         0.0848 
     89 H89        22.8041  -45.5928  -55.5886 H         1 UNK         0.0848 
     90 H90        23.1940  -47.2881  -55.3557 H         1 UNK         0.0848 
     91 H91        26.0685  -47.7948  -56.2198 H         1 UNK         0.3144 
     92 H92        25.2758  -50.1045  -58.5151 H         1 UNK         0.0727 
     93 H93        27.4744  -50.0856  -59.7345 H         1 UNK         0.0790 
     94 H94        27.6442  -48.3640  -59.3928 H         1 UNK         0.0790 
     95 H95        26.3406  -48.9345  -60.4221 H         1 UNK         0.0790 
     96 H96        27.8302  -49.6499  -57.2590 H         1 UNK         0.3215 
     97 H97        26.8224  -50.4232  -53.9447 H         1 UNK         0.0863 
     98 H98        28.8216  -51.9028  -54.1200 H         1 UNK         0.0808 
     99 H99        28.6855  -51.9085  -55.8785 H         1 UNK         0.0808 
    100 H100       27.4228  -52.6262  -54.8949 H         1 UNK         0.0808 
    101 H101       29.2480  -49.5116  -55.2796 H         1 UNK         0.3118 
    102 H102       28.5580  -46.0631  -54.9399 H         1 UNK         0.0546 
    103 H103       29.2821  -46.5261  -52.6364 H         1 UNK         0.0828 
    104 H104       30.6241  -45.9818  -53.6304 H         1 UNK         0.0828 
    105 H105       30.4750  -47.6887  -53.2076 H         1 UNK         0.0828 
    106 H106       30.8624  -47.7181  -55.6666 H         1 UNK         0.3005 
    107 H107       30.0505  -47.7990  -59.1031 H         1 UNK         0.1257 
    108 H108       31.1236  -45.4924  -58.8764 H         1 UNK         0.0775 
    109 H109       32.0844  -46.7117  -59.6321 H         1 UNK         0.0775 
    110 H110       34.0843  -44.0537  -57.0497 H         1 UNK         0.0840 
    111 H111       32.8190  -43.8604  -58.2293 H         1 UNK         0.0840 
    112 H112       32.3678  -48.6363  -57.7076 H         1 UNK         0.2987 
    113 H113       31.4043  -51.9624  -57.3626 H         1 UNK         0.0785 
    114 H114       33.2598  -50.7702  -58.5929 H         1 UNK         0.0798 
    115 H115       33.8379  -51.7273  -57.2425 H         1 UNK         0.0798 
    116 H116       33.7352  -49.9812  -57.0893 H         1 UNK         0.0798 
    117 H117       31.6582  -52.0399  -55.1518 H         1 UNK         0.3079 
    118 H118       31.1137  -50.1915  -52.7105 H         1 UNK         0.0794 
    119 H119       33.0968  -52.4460  -53.3466 H         1 UNK         0.0786 
    120 H120       31.3392  -52.5827  -53.2641 H         1 UNK         0.0786 
    121 H121       32.2573  -52.2455  -51.8147 H         1 UNK         0.0786 
    122 H122       32.7943  -49.2227  -51.6178 H         1 UNK         0.3032 
    123 H123       35.3744  -49.3886  -50.8079 H         1 UNK         0.1094 
    124 H124       37.2226  -49.6491  -52.4298 H         1 UNK         0.0794 
    125 H125       36.7392  -48.1805  -53.2677 H         1 UNK         0.0794 
    126 H126       37.3491  -48.1028  -51.6137 H         1 UNK         0.0794 
    127 H127       35.1408  -46.7608  -52.0240 H         1 UNK         0.3016 
@<TRIPOS>BOND
     1    1    2 1    
     2    1   67 1    
     3    1   68 1    
     4    1   69 1    
     5    2    3 2    
     6    2    4 am   BACKBONE|DICT|INTERRES
     7    4    5 1    
     8    4   70 1    
     9    5    6 1    
    10    5   65 1    
    11    5   71 1    
    12    6    7 1    
    13    6   72 1    
    14    6   73 1    
    15    7    8 1    
    16    8    9 1    
    17    8   74 1    
    18    8   75 1    
    19    9   10 ar   
    20    9   14 ar   
    21   10   11 ar   
    22   10   76 1    
    23   11   12 ar   
    24   11   48 1    
    25   12   13 ar   
    26   12   77 1    
    27   13   14 ar   
    28   13   15 1    
    29   14   78 1    
    30   15   16 1    
    31   15   79 1    
    32   15   80 1    
    33   16   17 1    
    34   17   18 1    
    35   17   81 1    
    36   17   82 1    
    37   18   19 1    
    38   18   22 1    
    39   18   83 1    
    40   19   20 am   BACKBONE|DICT|INTERRES
    41   19   21 2    
    42   20   84 1    
    43   20   85 1    
    44   22   23 am   BACKBONE|DICT|INTERRES
    45   22   86 1    
    46   23   24 2    
    47   23   25 1    
    48   25   26 1    
    49   25   27 1    
    50   25   87 1    
    51   26   88 1    
    52   26   89 1    
    53   26   90 1    
    54   27   28 am   BACKBONE|DICT|INTERRES
    55   27   91 1    
    56   28   29 2    
    57   28   30 1    
    58   30   31 1    
    59   30   32 1    
    60   30   92 1    
    61   31   93 1    
    62   31   94 1    
    63   31   95 1    
    64   32   33 am   BACKBONE|DICT|INTERRES
    65   32   96 1    
    66   33   34 2    
    67   33   35 1    
    68   35   36 1    
    69   35   37 1    
    70   35   97 1    
    71   36   98 1    
    72   36   99 1    
    73   36  100 1    
    74   37   38 am   BACKBONE|DICT|INTERRES
    75   37  101 1    
    76   38   39 2    
    77   38   40 1    
    78   40   41 1    
    79   40   42 1    
    80   40  102 1    
    81   41  103 1    
    82   41  104 1    
    83   41  105 1    
    84   42   43 am   BACKBONE|DICT|INTERRES
    85   42  106 1    
    86   43   44 2    
    87   43   45 1    
    88   45   46 1    
    89   45   49 1    
    90   45  107 1    
    91   46   47 1    
    92   46  108 1    
    93   46  109 1    
    94   47   48 1    
    95   48  110 1    
    96   48  111 1    
    97   49   50 am   BACKBONE|DICT|INTERRES
    98   49  112 1    
    99   50   51 2    
   100   50   52 1    
   101   52   53 1    
   102   52   54 1    
   103   52  113 1    
   104   53  114 1    
   105   53  115 1    
   106   53  116 1    
   107   54   55 am   BACKBONE|DICT|INTERRES
   108   54  117 1    
   109   55   56 2    
   110   55   57 1    
   111   57   58 1    
   112   57   59 1    
   113   57  118 1    
   114   58  119 1    
   115   58  120 1    
   116   58  121 1    
   117   59   60 am   BACKBONE|DICT|INTERRES
   118   59  122 1    
   119   60   61 2    
   120   60   62 1    
   121   62   63 1    
   122   62   64 1    
   123   62  123 1    
   124   63  124 1    
   125   63  125 1    
   126   63  126 1    
   127   64   65 am   BACKBONE|DICT|INTERRES
   128   64  127 1    
   129   65   66 2    
@<TRIPOS>SUBSTRUCTURE
     1 UNK         1 GROUP             0       ****    0 ROOT    
