@<TRIPOS>MOLECULE
3R134
127   129    1
SMALL
USER_CHARGES


@<TRIPOS>ATOM
      1 CA         37.6688  -44.6438  -50.1795 C.3       0 UNK        -0.1968 
      2 C          37.3931  -45.0808  -51.6109 C.2       0 UNK         0.4852 
      3 O          38.3168  -45.1234  -52.4248 O.2       0 UNK        -0.5359 
      4 N          36.1306  -45.4064  -51.9230 N.am      1 UNK        -0.4300 
      5 CA         35.6851  -45.8567  -53.2489 C.3       1 UNK         0.0863 
      6 C6         34.1528  -45.6678  -53.4207 C.3       11 UNK        -0.0953 
      7 S7         33.6900  -45.3303  -55.1544 S.3       11 UNK        -0.2369 
      8 C8         33.0298  -43.6375  -55.0513 C.3       11 UNK         0.0226 
      9 C9         31.5281  -43.6424  -54.8069 C.ar      11 UNK        -0.0699 
     10 C10        31.0139  -43.6914  -53.5068 C.ar      11 UNK        -0.0804 
     11 C11        29.6318  -43.6896  -53.2901 C.ar      11 UNK        -0.0871 
     12 C12        28.7648  -43.6428  -54.3858 C.ar      11 UNK        -0.1008 
     13 C13        29.2672  -43.5878  -55.6888 C.ar      11 UNK        -0.0735 
     14 C14        30.6493  -43.5858  -55.8926 C.ar      11 UNK        -0.0945 
     15 C15        28.3146  -43.5343  -56.8724 C.3       11 UNK         0.0169 
     16 S16        27.4158  -41.9533  -56.9118 S.3       11 UNK        -0.2669 
     17 C17        26.5282  -42.0477  -58.5025 C.3       11 UNK        -0.0850 
     18 CA         25.1356  -42.7346  -58.3674 C.3       10 UNK         0.0855 
     19 C          24.1239  -42.3102  -59.4800 C.2       10 UNK         0.5543 
     20 N          23.1721  -43.1546  -59.8593 N.am      10 UNK        -0.7343 
     21 O          24.1725  -41.1898  -59.9824 O.2       10 UNK        -0.5027 
     22 N          25.2489  -44.1922  -58.1570 N.am      10 UNK        -0.4495 
     23 C          25.6923  -45.0806  -59.0581 C.2       10 UNK         0.4903 
     24 O          26.0590  -44.7816  -60.1955 O.2       10 UNK        -0.4860 
     25 CA         25.6948  -46.5511  -58.6075 C.3       9 UNK         0.0227 
     26 CB         25.1783  -47.4950  -59.7122 C.3       9 UNK        -0.1964 
     27 N          26.9972  -47.0008  -58.1048 N.am      9 UNK        -0.4231 
     28 C          28.1669  -47.0994  -58.7593 C.2       9 UNK         0.5014 
     29 O          28.3676  -46.7136  -59.9107 O.2       9 UNK        -0.5270 
     30 CA         29.3060  -47.8210  -58.0140 C.3       8 UNK         0.0284 
     31 CB         30.0335  -46.8720  -57.0494 C.3       8 UNK        -0.1977 
     32 N          28.8375  -49.0003  -57.2824 N.am      8 UNK        -0.4342 
     33 C          28.2997  -50.0940  -57.8436 C.2       8 UNK         0.5039 
     34 O          28.2318  -50.2850  -59.0583 O.2       8 UNK        -0.5547 
     35 CA         27.7112  -51.1403  -56.8853 C.3       7 UNK         0.0281 
     36 CB         28.8060  -52.0800  -56.3521 C.3       7 UNK        -0.1963 
     37 N          27.0079  -50.5005  -55.7706 N.am      7 UNK        -0.4444 
     38 C          25.7624  -50.0088  -55.8480 C.2       7 UNK         0.5104 
     39 O          25.0446  -50.1167  -56.8419 O.2       7 UNK        -0.5100 
     40 CA         25.2179  -49.2670  -54.6125 C.3       6 UNK         0.0396 
     41 CB         24.4135  -50.2288  -53.7239 C.3       6 UNK        -0.1801 
     42 N          26.2620  -48.6265  -53.8082 N.am      6 UNK        -0.4747 
     43 C          26.9631  -47.5469  -54.1862 C.2       6 UNK         0.5012 
     44 O          26.7777  -46.9504  -55.2470 O.2       6 UNK        -0.5003 
     45 CA         28.1053  -47.1009  -53.2489 C.3       5 UNK         0.0782 
     46 C46        27.5884  -46.0995  -52.1896 C.3       11 UNK        -0.0868 
     47 S47        28.9508  -45.3940  -51.2004 S.3       11 UNK        -0.2515 
     48 C48        29.0759  -43.7064  -51.8728 C.3       11 UNK         0.0199 
     49 N          28.8069  -48.2372  -52.6335 N.am      5 UNK        -0.4607 
     50 C          29.4492  -49.1912  -53.3154 C.2       4 UNK         0.5031 
     51 O          29.4655  -49.2527  -54.5462 O.2       4 UNK        -0.5119 
     52 CA         30.1251  -50.2998  -52.4948 C.3       4 UNK         0.0263 
     53 CB         29.1502  -51.4686  -52.2768 C.3       4 UNK        -0.1967 
     54 N          31.3216  -50.7917  -53.1799 N.am      4 UNK        -0.4237 
     55 C          32.4491  -50.0818  -53.3045 C.2       3 UNK         0.4908 
     56 O          32.6398  -48.9984  -52.7454 O.2       3 UNK        -0.5102 
     57 CA         33.5196  -50.6636  -54.2436 C.3       3 UNK         0.0241 
     58 CB         33.1823  -50.3220  -55.7055 C.3       3 UNK        -0.1971 
     59 N          34.8373  -50.1171  -53.9254 N.am      3 UNK        -0.4139 
     60 C          35.5746  -50.4522  -52.8610 C.2       2 UNK         0.5016 
     61 O          35.3261  -51.4140  -52.1323 O.2       2 UNK        -0.5319 
     62 CA         36.7656  -49.5369  -52.5205 C.3       2 UNK         0.0286 
     63 CB         37.9932  -49.8491  -53.3993 C.3       2 UNK        -0.1963 
     64 N          36.4270  -48.1025  -52.5267 N.am      2 UNK        -0.4790 
     65 C          36.1119  -47.3101  -53.5656 C.2       1 UNK         0.5024 
     66 O          36.1209  -47.6940  -54.7361 O.2       1 UNK        -0.4888 
     67 H67        36.7657  -44.6482  -49.5693 H         1 UNK         0.0892 
     68 H68        38.3942  -45.3121  -49.7163 H         1 UNK         0.0892 
     69 H69        38.0796  -43.6346  -50.1684 H         1 UNK         0.0892 
     70 H70        35.4140  -45.3477  -51.2129 H         1 UNK         0.3107 
     71 H71        36.1904  -45.2193  -53.9785 H         1 UNK         0.0773 
     72 H72        33.8062  -44.8370  -52.8060 H         1 UNK         0.0680 
     73 H73        33.5948  -46.5362  -53.0667 H         1 UNK         0.0680 
     74 H74        33.2486  -43.1261  -55.9899 H         1 UNK         0.0650 
     75 H75        33.5459  -43.0692  -54.2762 H         1 UNK         0.0650 
     76 H76        31.6876  -43.7274  -52.6621 H         1 UNK         0.1397 
     77 H77        27.6947  -43.6333  -54.2306 H         1 UNK         0.1363 
     78 H78        31.0443  -43.5443  -56.8985 H         1 UNK         0.1355 
     79 H79        28.8513  -43.6747  -57.8121 H         1 UNK         0.0707 
     80 H80        27.6077  -44.3595  -56.7885 H         1 UNK         0.0707 
     81 H81        26.4231  -41.0160  -58.8421 H         1 UNK         0.1034 
     82 H82        27.1472  -42.5381  -59.2549 H         1 UNK         0.1034 
     83 H83        24.6764  -42.3505  -57.4557 H         1 UNK         0.0482 
     84 H84        23.1095  -44.0717  -59.4479 H         1 UNK         0.3460 
     85 H85        22.5142  -42.8717  -60.5686 H         1 UNK         0.3460 
     86 H86        24.9487  -44.5249  -57.2518 H         1 UNK         0.2989 
     87 H87        25.0065  -46.6424  -57.7655 H         1 UNK         0.0559 
     88 H88        25.8233  -47.4870  -60.5915 H         1 UNK         0.0848 
     89 H89        24.1802  -47.2026  -60.0399 H         1 UNK         0.0848 
     90 H90        25.1158  -48.5231  -59.3543 H         1 UNK         0.0848 
     91 H91        26.9969  -47.2575  -57.1206 H         1 UNK         0.3144 
     92 H92        30.0270  -48.1636  -58.7591 H         1 UNK         0.0727 
     93 H93        29.3665  -46.4913  -56.2764 H         1 UNK         0.0790 
     94 H94        30.4399  -46.0135  -57.5847 H         1 UNK         0.0790 
     95 H95        30.8680  -47.3685  -56.5531 H         1 UNK         0.0790 
     96 H96        28.9395  -48.9825  -56.2689 H         1 UNK         0.3215 
     97 H97        26.9973  -51.7455  -57.4490 H         1 UNK         0.0863 
     98 H98        28.3894  -52.8385  -55.6894 H         1 UNK         0.0808 
     99 H99        29.5798  -51.5423  -55.8049 H         1 UNK         0.0808 
    100 H100       29.2976  -52.6035  -57.1732 H         1 UNK         0.0808 
    101 H101       27.5521  -50.3096  -54.9409 H         1 UNK         0.3118 
    102 H102       24.5405  -48.4881  -54.9696 H         1 UNK         0.0546 
    103 H103       25.0383  -51.0264  -53.3199 H         1 UNK         0.0828 
    104 H104       23.6090  -50.7011  -54.2896 H         1 UNK         0.0828 
    105 H105       23.9524  -49.7048  -52.8865 H         1 UNK         0.0828 
    106 H106       26.4828  -49.0536  -52.9200 H         1 UNK         0.3005 
    107 H107       28.8332  -46.5817  -53.8767 H         1 UNK         0.1257 
    108 H108       26.8927  -46.5908  -51.5067 H         1 UNK         0.0775 
    109 H109       27.0242  -45.2908  -52.6568 H         1 UNK         0.0775 
    110 H110       28.0983  -43.2230  -51.8364 H         1 UNK         0.0840 
    111 H111       29.7239  -43.1184  -51.2210 H         1 UNK         0.0840 
    112 H112       28.8395  -48.2426  -51.6241 H         1 UNK         0.2987 
    113 H113       30.4190  -49.8964  -51.5232 H         1 UNK         0.0785 
    114 H114       28.2572  -51.1406  -51.7431 H         1 UNK         0.0798 
    115 H115       29.6073  -52.2589  -51.6810 H         1 UNK         0.0798 
    116 H116       28.8234  -51.9078  -53.2201 H         1 UNK         0.0798 
    117 H117       31.2269  -51.6541  -53.6954 H         1 UNK         0.3079 
    118 H118       33.5476  -51.7488  -54.1240 H         1 UNK         0.0794 
    119 H119       33.9217  -50.7366  -56.3909 H         1 UNK         0.0786 
    120 H120       33.1429  -49.2433  -55.8669 H         1 UNK         0.0786 
    121 H121       32.2110  -50.7274  -55.9925 H         1 UNK         0.0786 
    122 H122       35.1221  -49.2837  -54.4317 H         1 UNK         0.3032 
    123 H123       37.0428  -49.7665  -51.4900 H         1 UNK         0.1094 
    124 H124       38.8450  -49.2267  -53.1250 H         1 UNK         0.0794 
    125 H125       37.7932  -49.6954  -54.4599 H         1 UNK         0.0794 
    126 H126       38.2994  -50.8891  -53.2786 H         1 UNK         0.0794 
    127 H127       36.3609  -47.6828  -51.6098 H         1 UNK         0.3016 
@<TRIPOS>BOND
     1    1    2 1    
     2    1   67 1    
     3    1   68 1    
     4    1   69 1    
     5    2    3 2    
     6    2    4 am   BACKBONE|DICT|INTERRES
     7    4    5 1    
     8    4   70 1    
     9    5    6 1    
    10    5   65 1    
    11    5   71 1    
    12    6    7 1    
    13    6   72 1    
    14    6   73 1    
    15    7    8 1    
    16    8    9 1    
    17    8   74 1    
    18    8   75 1    
    19    9   10 ar   
    20    9   14 ar   
    21   10   11 ar   
    22   10   76 1    
    23   11   12 ar   
    24   11   48 1    
    25   12   13 ar   
    26   12   77 1    
    27   13   14 ar   
    28   13   15 1    
    29   14   78 1    
    30   15   16 1    
    31   15   79 1    
    32   15   80 1    
    33   16   17 1    
    34   17   18 1    
    35   17   81 1    
    36   17   82 1    
    37   18   19 1    
    38   18   22 1    
    39   18   83 1    
    40   19   20 am   BACKBONE|DICT|INTERRES
    41   19   21 2    
    42   20   84 1    
    43   20   85 1    
    44   22   23 am   BACKBONE|DICT|INTERRES
    45   22   86 1    
    46   23   24 2    
    47   23   25 1    
    48   25   26 1    
    49   25   27 1    
    50   25   87 1    
    51   26   88 1    
    52   26   89 1    
    53   26   90 1    
    54   27   28 am   BACKBONE|DICT|INTERRES
    55   27   91 1    
    56   28   29 2    
    57   28   30 1    
    58   30   31 1    
    59   30   32 1    
    60   30   92 1    
    61   31   93 1    
    62   31   94 1    
    63   31   95 1    
    64   32   33 am   BACKBONE|DICT|INTERRES
    65   32   96 1    
    66   33   34 2    
    67   33   35 1    
    68   35   36 1    
    69   35   37 1    
    70   35   97 1    
    71   36   98 1    
    72   36   99 1    
    73   36  100 1    
    74   37   38 am   BACKBONE|DICT|INTERRES
    75   37  101 1    
    76   38   39 2    
    77   38   40 1    
    78   40   41 1    
    79   40   42 1    
    80   40  102 1    
    81   41  103 1    
    82   41  104 1    
    83   41  105 1    
    84   42   43 am   BACKBONE|DICT|INTERRES
    85   42  106 1    
    86   43   44 2    
    87   43   45 1    
    88   45   46 1    
    89   45   49 1    
    90   45  107 1    
    91   46   47 1    
    92   46  108 1    
    93   46  109 1    
    94   47   48 1    
    95   48  110 1    
    96   48  111 1    
    97   49   50 am   BACKBONE|DICT|INTERRES
    98   49  112 1    
    99   50   51 2    
   100   50   52 1    
   101   52   53 1    
   102   52   54 1    
   103   52  113 1    
   104   53  114 1    
   105   53  115 1    
   106   53  116 1    
   107   54   55 am   BACKBONE|DICT|INTERRES
   108   54  117 1    
   109   55   56 2    
   110   55   57 1    
   111   57   58 1    
   112   57   59 1    
   113   57  118 1    
   114   58  119 1    
   115   58  120 1    
   116   58  121 1    
   117   59   60 am   BACKBONE|DICT|INTERRES
   118   59  122 1    
   119   60   61 2    
   120   60   62 1    
   121   62   63 1    
   122   62   64 1    
   123   62  123 1    
   124   63  124 1    
   125   63  125 1    
   126   63  126 1    
   127   64   65 am   BACKBONE|DICT|INTERRES
   128   64  127 1    
   129   65   66 2    
@<TRIPOS>SUBSTRUCTURE
     1 UNK         1 GROUP             0       ****    0 ROOT    
