@<TRIPOS>MOLECULE
3R134
127   129    1
SMALL
USER_CHARGES


@<TRIPOS>ATOM
      1 CA         37.2826  -49.0297  -58.1203 C.3       0 UNK        -0.1968 
      2 C          36.0262  -48.6891  -57.3329 C.2       0 UNK         0.4852 
      3 O          34.9227  -49.0272  -57.7641 O.2       0 UNK        -0.5359 
      4 N          36.1806  -48.0335  -56.1745 N.am      1 UNK        -0.4300 
      5 CA         35.0990  -47.6199  -55.2727 C.3       1 UNK         0.0863 
      6 C6         35.5194  -46.3685  -54.4558 C.3       11 UNK        -0.0953 
      7 S7         34.0828  -45.4253  -53.8567 S.3       11 UNK        -0.2369 
      8 C8         33.8615  -44.1996  -55.1821 C.3       11 UNK         0.0226 
      9 C9         32.4619  -43.6010  -55.1502 C.ar      11 UNK        -0.0699 
     10 C10        32.0560  -42.8125  -54.0695 C.ar      11 UNK        -0.0804 
     11 C11        30.7615  -42.2862  -54.0193 C.ar      11 UNK        -0.0871 
     12 C12        29.8825  -42.5150  -55.0827 C.ar      11 UNK        -0.1008 
     13 C13        30.2786  -43.2973  -56.1715 C.ar      11 UNK        -0.0735 
     14 C14        31.5663  -43.8425  -56.1964 C.ar      11 UNK        -0.0945 
     15 C15        29.3175  -43.5677  -57.3188 C.3       11 UNK         0.0169 
     16 S16        28.2571  -44.9988  -56.9570 S.3       11 UNK        -0.2669 
     17 C17        26.8261  -44.2213  -56.1119 C.3       11 UNK        -0.0850 
     18 CA         25.4605  -44.5908  -56.7519 C.3       10 UNK         0.0855 
     19 C          25.1704  -43.7334  -58.0206 C.2       10 UNK         0.5543 
     20 N          25.0849  -44.3000  -59.2185 N.am      10 UNK        -0.7343 
     21 O          25.0104  -42.5206  -57.9085 O.2       10 UNK        -0.5027 
     22 N          25.3681  -46.0427  -56.9340 N.am      10 UNK        -0.4495 
     23 C          24.2817  -46.7633  -57.2264 C.2       10 UNK         0.4903 
     24 O          23.1334  -46.3189  -57.2109 O.2       10 UNK        -0.4860 
     25 CA         24.5563  -48.2301  -57.6274 C.3       9 UNK         0.0227 
     26 CB         23.4325  -48.8301  -58.4981 C.3       9 UNK        -0.1964 
     27 N          25.8740  -48.4094  -58.2662 N.am      9 UNK        -0.4231 
     28 C          26.3126  -47.8075  -59.3869 C.2       9 UNK         0.5014 
     29 O          25.6101  -47.0668  -60.0766 O.2       9 UNK        -0.5270 
     30 CA         27.7938  -48.0027  -59.7552 C.3       8 UNK         0.0284 
     31 CB         28.3208  -46.8947  -60.6877 C.3       8 UNK        -0.1977 
     32 N          28.6175  -48.0318  -58.5458 N.am      8 UNK        -0.4342 
     33 C          29.4329  -49.0296  -58.1897 C.2       8 UNK         0.5039 
     34 O          29.6441  -50.0282  -58.8793 O.2       8 UNK        -0.5547 
     35 CA         30.1095  -48.9072  -56.8140 C.3       7 UNK         0.0281 
     36 CB         31.4257  -48.1224  -56.9299 C.3       7 UNK        -0.1963 
     37 N          29.2903  -48.2966  -55.7591 N.am      7 UNK        -0.4444 
     38 C          28.0644  -48.6846  -55.3687 C.2       7 UNK         0.5104 
     39 O          27.3930  -49.5252  -55.9685 O.2       7 UNK        -0.5100 
     40 CA         27.4642  -48.0225  -54.1134 C.3       6 UNK         0.0396 
     41 CB         27.0784  -49.0730  -53.0572 C.3       6 UNK        -0.1801 
     42 N          28.3805  -47.0529  -53.5182 N.am      6 UNK        -0.4747 
     43 C          28.0585  -45.9131  -52.9019 C.2       6 UNK         0.5012 
     44 O          26.8973  -45.5669  -52.6780 O.2       6 UNK        -0.5003 
     45 CA         29.2419  -45.0109  -52.4773 C.3       5 UNK         0.0782 
     46 C46        28.7732  -43.6894  -51.8080 C.3       11 UNK        -0.0868 
     47 S47        30.1492  -42.5841  -51.3333 S.3       11 UNK        -0.2515 
     48 C48        30.3047  -41.5053  -52.7960 C.3       11 UNK         0.0199 
     49 N          30.2352  -45.7266  -51.6659 N.am      5 UNK        -0.4607 
     50 C          31.1107  -46.6325  -52.1205 C.2       4 UNK         0.5031 
     51 O          31.1308  -47.0201  -53.2914 O.2       4 UNK        -0.5119 
     52 CA         32.1327  -47.2074  -51.1210 C.3       4 UNK         0.0263 
     53 CB         31.9228  -46.7629  -49.6544 C.3       4 UNK        -0.1967 
     54 N          32.2137  -48.6666  -51.2282 N.am      4 UNK        -0.4237 
     55 C          31.2304  -49.5511  -50.9930 C.2       3 UNK         0.4908 
     56 O          30.1151  -49.2418  -50.5692 O.2       3 UNK        -0.5102 
     57 CA         31.5591  -51.0371  -51.2557 C.3       3 UNK         0.0241 
     58 CB         30.2978  -51.8956  -51.4995 C.3       3 UNK        -0.1971 
     59 N          32.5492  -51.2375  -52.3239 N.am      3 UNK        -0.4139 
     60 C          32.4184  -50.8894  -53.6126 C.2       2 UNK         0.5016 
     61 O          31.3997  -50.4016  -54.1017 O.2       2 UNK        -0.5319 
     62 CA         33.6466  -51.1185  -54.5081 C.3       2 UNK         0.0286 
     63 CB         33.3215  -52.1035  -55.6433 C.3       2 UNK        -0.1963 
     64 N          34.1369  -49.8677  -55.0887 N.am      2 UNK        -0.4790 
     65 C          34.6086  -48.8117  -54.4113 C.2       1 UNK         0.5024 
     66 O          34.7049  -48.7863  -53.1815 O.2       1 UNK        -0.4888 
     67 H67        37.3695  -50.1094  -58.2381 H         1 UNK         0.0892 
     68 H68        38.1846  -48.6680  -57.6271 H         1 UNK         0.0892 
     69 H69        37.2356  -48.5811  -59.1122 H         1 UNK         0.0892 
     70 H70        37.1148  -47.8183  -55.8554 H         1 UNK         0.3107 
     71 H71        34.2551  -47.3248  -55.9001 H         1 UNK         0.0773 
     72 H72        36.1522  -46.6371  -53.6080 H         1 UNK         0.0680 
     73 H73        36.1223  -45.6974  -55.0701 H         1 UNK         0.0680 
     74 H74        34.6039  -43.4082  -55.0714 H         1 UNK         0.0650 
     75 H75        34.0501  -44.6740  -56.1465 H         1 UNK         0.0650 
     76 H76        32.7377  -42.6399  -53.2476 H         1 UNK         0.1397 
     77 H77        28.8828  -42.1050  -55.0523 H         1 UNK         0.1363 
     78 H78        31.8696  -44.4579  -57.0323 H         1 UNK         0.1355 
     79 H79        29.8785  -43.7756  -58.2313 H         1 UNK         0.0707 
     80 H80        28.7129  -42.6854  -57.5338 H         1 UNK         0.0707 
     81 H81        26.9487  -43.1386  -56.0560 H         1 UNK         0.1034 
     82 H82        26.8299  -44.5564  -55.0775 H         1 UNK         0.1034 
     83 H83        24.6823  -44.3188  -56.0364 H         1 UNK         0.0482 
     84 H84        24.8916  -43.7203  -60.0189 H         1 UNK         0.3460 
     85 H85        25.2206  -45.2976  -59.3463 H         1 UNK         0.3460 
     86 H86        26.2608  -46.5057  -56.9910 H         1 UNK         0.2989 
     87 H87        24.5917  -48.7970  -56.6960 H         1 UNK         0.0559 
     88 H88        23.2917  -48.2693  -59.4226 H         1 UNK         0.0848 
     89 H89        22.4799  -48.8225  -57.9671 H         1 UNK         0.0848 
     90 H90        23.6455  -49.8657  -58.7629 H         1 UNK         0.0848 
     91 H91        26.5291  -48.9830  -57.7411 H         1 UNK         0.3144 
     92 H92        27.8550  -48.9543  -60.2868 H         1 UNK         0.0727 
     93 H93        29.3701  -47.0534  -60.9365 H         1 UNK         0.0790 
     94 H94        28.2300  -45.9079  -60.2311 H         1 UNK         0.0790 
     95 H95        27.7668  -46.8738  -61.6272 H         1 UNK         0.0790 
     96 H96        28.5335  -47.2398  -57.9211 H         1 UNK         0.3215 
     97 H97        30.3445  -49.9208  -56.4841 H         1 UNK         0.0863 
     98 H98        31.9489  -48.0996  -55.9740 H         1 UNK         0.0808 
     99 H99        31.2570  -47.0915  -57.2435 H         1 UNK         0.0808 
    100 H100       32.0957  -48.5838  -57.6568 H         1 UNK         0.0808 
    101 H101       29.7597  -47.5873  -55.2155 H         1 UNK         0.3118 
    102 H102       26.5602  -47.5044  -54.4400 H         1 UNK         0.0546 
    103 H103       26.3853  -49.8093  -53.4661 H         1 UNK         0.0828 
    104 H104       26.5898  -48.6114  -52.1991 H         1 UNK         0.0828 
    105 H105       27.9541  -49.6120  -52.6929 H         1 UNK         0.0828 
    106 H106       29.3742  -47.2757  -53.5562 H         1 UNK         0.3005 
    107 H107       29.7374  -44.7414  -53.4114 H         1 UNK         0.1257 
    108 H108       28.1992  -43.9076  -50.9055 H         1 UNK         0.0775 
    109 H109       28.0981  -43.1430  -52.4694 H         1 UNK         0.0775 
    110 H110       29.3540  -41.0026  -52.9806 H         1 UNK         0.0840 
    111 H111       31.0296  -40.7190  -52.5809 H         1 UNK         0.0840 
    112 H112       30.2684  -45.4728  -50.6900 H         1 UNK         0.2987 
    113 H113       33.1063  -46.8327  -51.4379 H         1 UNK         0.0785 
    114 H114       30.9446  -47.0530  -49.2695 H         1 UNK         0.0798 
    115 H115       32.0142  -45.6806  -49.5529 H         1 UNK         0.0798 
    116 H116       32.6761  -47.2047  -49.0021 H         1 UNK         0.0798 
    117 H117       33.0670  -49.0108  -51.6524 H         1 UNK         0.3079 
    118 H118       32.0269  -51.4009  -50.3397 H         1 UNK         0.0794 
    119 H119       29.7283  -51.5440  -52.3604 H         1 UNK         0.0786 
    120 H120       29.6308  -51.8659  -50.6370 H         1 UNK         0.0786 
    121 H121       30.5556  -52.9405  -51.6715 H         1 UNK         0.0786 
    122 H122       33.4333  -51.6253  -52.0234 H         1 UNK         0.3032 
    123 H123       34.4539  -51.5438  -53.9079 H         1 UNK         0.1094 
    124 H124       34.2024  -52.3176  -56.2489 H         1 UNK         0.0794 
    125 H125       32.9623  -53.0535  -55.2452 H         1 UNK         0.0794 
    126 H126       32.5466  -51.7132  -56.3050 H         1 UNK         0.0794 
    127 H127       34.1233  -49.7950  -56.1017 H         1 UNK         0.3016 
@<TRIPOS>BOND
     1    1    2 1    
     2    1   67 1    
     3    1   68 1    
     4    1   69 1    
     5    2    3 2    
     6    2    4 am   BACKBONE|DICT|INTERRES
     7    4    5 1    
     8    4   70 1    
     9    5    6 1    
    10    5   65 1    
    11    5   71 1    
    12    6    7 1    
    13    6   72 1    
    14    6   73 1    
    15    7    8 1    
    16    8    9 1    
    17    8   74 1    
    18    8   75 1    
    19    9   10 ar   
    20    9   14 ar   
    21   10   11 ar   
    22   10   76 1    
    23   11   12 ar   
    24   11   48 1    
    25   12   13 ar   
    26   12   77 1    
    27   13   14 ar   
    28   13   15 1    
    29   14   78 1    
    30   15   16 1    
    31   15   79 1    
    32   15   80 1    
    33   16   17 1    
    34   17   18 1    
    35   17   81 1    
    36   17   82 1    
    37   18   19 1    
    38   18   22 1    
    39   18   83 1    
    40   19   20 am   BACKBONE|DICT|INTERRES
    41   19   21 2    
    42   20   84 1    
    43   20   85 1    
    44   22   23 am   BACKBONE|DICT|INTERRES
    45   22   86 1    
    46   23   24 2    
    47   23   25 1    
    48   25   26 1    
    49   25   27 1    
    50   25   87 1    
    51   26   88 1    
    52   26   89 1    
    53   26   90 1    
    54   27   28 am   BACKBONE|DICT|INTERRES
    55   27   91 1    
    56   28   29 2    
    57   28   30 1    
    58   30   31 1    
    59   30   32 1    
    60   30   92 1    
    61   31   93 1    
    62   31   94 1    
    63   31   95 1    
    64   32   33 am   BACKBONE|DICT|INTERRES
    65   32   96 1    
    66   33   34 2    
    67   33   35 1    
    68   35   36 1    
    69   35   37 1    
    70   35   97 1    
    71   36   98 1    
    72   36   99 1    
    73   36  100 1    
    74   37   38 am   BACKBONE|DICT|INTERRES
    75   37  101 1    
    76   38   39 2    
    77   38   40 1    
    78   40   41 1    
    79   40   42 1    
    80   40  102 1    
    81   41  103 1    
    82   41  104 1    
    83   41  105 1    
    84   42   43 am   BACKBONE|DICT|INTERRES
    85   42  106 1    
    86   43   44 2    
    87   43   45 1    
    88   45   46 1    
    89   45   49 1    
    90   45  107 1    
    91   46   47 1    
    92   46  108 1    
    93   46  109 1    
    94   47   48 1    
    95   48  110 1    
    96   48  111 1    
    97   49   50 am   BACKBONE|DICT|INTERRES
    98   49  112 1    
    99   50   51 2    
   100   50   52 1    
   101   52   53 1    
   102   52   54 1    
   103   52  113 1    
   104   53  114 1    
   105   53  115 1    
   106   53  116 1    
   107   54   55 am   BACKBONE|DICT|INTERRES
   108   54  117 1    
   109   55   56 2    
   110   55   57 1    
   111   57   58 1    
   112   57   59 1    
   113   57  118 1    
   114   58  119 1    
   115   58  120 1    
   116   58  121 1    
   117   59   60 am   BACKBONE|DICT|INTERRES
   118   59  122 1    
   119   60   61 2    
   120   60   62 1    
   121   62   63 1    
   122   62   64 1    
   123   62  123 1    
   124   63  124 1    
   125   63  125 1    
   126   63  126 1    
   127   64   65 am   BACKBONE|DICT|INTERRES
   128   64  127 1    
   129   65   66 2    
@<TRIPOS>SUBSTRUCTURE
     1 UNK         1 GROUP             0       ****    0 ROOT    
