@<TRIPOS>MOLECULE
3R134
127   129    1
SMALL
USER_CHARGES


@<TRIPOS>ATOM
      1 CA         37.0872  -44.7739  -48.9268 C.3       0 UNK        -0.1968 
      2 C          37.0247  -45.0374  -50.4244 C.2       0 UNK         0.4852 
      3 O          38.0518  -44.9615  -51.1011 O.2       0 UNK        -0.5359 
      4 N          35.8281  -45.3381  -50.9461 N.am      1 UNK        -0.4300 
      5 CA         35.5928  -45.6906  -52.3492 C.3       1 UNK         0.0863 
      6 C6         34.0984  -45.5163  -52.7218 C.3       11 UNK        -0.0953 
      7 S7         33.8520  -45.3012  -54.5195 S.3       11 UNK        -0.2369 
      8 C8         33.1112  -43.6409  -54.6107 C.3       11 UNK         0.0226 
      9 C9         31.5937  -43.7000  -54.5101 C.ar      11 UNK        -0.0699 
     10 C10        30.9594  -43.7016  -53.2641 C.ar      11 UNK        -0.0804 
     11 C11        29.5641  -43.7506  -53.1768 C.ar      11 UNK        -0.0871 
     12 C12        28.8013  -43.7912  -54.3484 C.ar      11 UNK        -0.1008 
     13 C13        29.4254  -43.7876  -55.5991 C.ar      11 UNK        -0.0735 
     14 C14        30.8203  -43.7432  -55.6735 C.ar      11 UNK        -0.0945 
     15 C15        28.5981  -43.8516  -56.8718 C.3       11 UNK         0.0169 
     16 S16        27.9006  -42.2299  -57.3016 S.3       11 UNK        -0.2669 
     17 C17        27.6063  -42.4233  -59.0942 C.3       11 UNK        -0.0850 
     18 CA         26.2431  -43.0878  -59.4210 C.3       10 UNK         0.0855 
     19 C          25.8517  -42.8723  -60.9125 C.2       10 UNK         0.5543 
     20 N          25.6728  -43.9152  -61.7150 N.am      10 UNK        -0.7343 
     21 O          25.6953  -41.7338  -61.3470 O.2       10 UNK        -0.5027 
     22 N          26.2230  -44.5011  -59.0094 N.am      10 UNK        -0.4495 
     23 C          25.1485  -45.1599  -58.5682 C.2       10 UNK         0.4903 
     24 O          24.0506  -44.6299  -58.3940 O.2       10 UNK        -0.4860 
     25 CA         25.2961  -46.6633  -58.2647 C.3       9 UNK         0.0227 
     26 CB         24.7383  -47.5111  -59.4240 C.3       9 UNK        -0.1964 
     27 N          26.6342  -47.1357  -57.8754 N.am      9 UNK        -0.4231 
     28 C          27.7665  -47.1976  -58.5930 C.2       9 UNK         0.5014 
     29 O          27.9092  -46.6696  -59.6963 O.2       9 UNK        -0.5270 
     30 CA         28.9338  -48.0012  -57.9865 C.3       8 UNK         0.0284 
     31 CB         29.8289  -47.1200  -57.1026 C.3       8 UNK        -0.1977 
     32 N          28.4833  -49.1555  -57.2071 N.am      8 UNK        -0.4342 
     33 C          27.8775  -50.2392  -57.7133 C.2       8 UNK         0.5039 
     34 O          27.6854  -50.4249  -58.9155 O.2       8 UNK        -0.5547 
     35 CA         27.3841  -51.2821  -56.7000 C.3       7 UNK         0.0281 
     36 CB         28.5357  -52.1936  -56.2422 C.3       7 UNK        -0.1963 
     37 N          26.7643  -50.6386  -55.5395 N.am      7 UNK        -0.4444 
     38 C          25.5053  -50.1783  -55.5153 C.2       7 UNK         0.5104 
     39 O          24.7103  -50.3092  -56.4460 O.2       7 UNK        -0.5100 
     40 CA         25.0476  -49.4458  -54.2400 C.3       6 UNK         0.0396 
     41 CB         24.3553  -50.4264  -53.2803 C.3       6 UNK        -0.1801 
     42 N          26.1354  -48.7649  -53.5324 N.am      6 UNK        -0.4747 
     43 C          26.7685  -47.6707  -53.9810 C.2       6 UNK         0.5012 
     44 O          26.4895  -47.1055  -55.0371 O.2       6 UNK        -0.5003 
     45 CA         27.9487  -47.1546  -53.1333 C.3       5 UNK         0.0782 
     46 C46        27.4425  -46.1693  -52.0525 C.3       11 UNK        -0.0868 
     47 S47        28.7994  -45.4141  -51.0938 S.3       11 UNK        -0.2515 
     48 C48        28.8873  -43.7437  -51.8141 C.3       11 UNK         0.0199 
     49 N          28.7628  -48.2395  -52.5666 N.am      5 UNK        -0.4607 
     50 C          29.3841  -49.1805  -53.2870 C.2       4 UNK         0.5031 
     51 O          29.2571  -49.3026  -54.5072 O.2       4 UNK        -0.5119 
     52 CA         30.2499  -50.1897  -52.5182 C.3       4 UNK         0.0263 
     53 CB         29.4307  -51.4478  -52.1875 C.3       4 UNK        -0.1967 
     54 N          31.4267  -50.5711  -53.3026 N.am      4 UNK        -0.4237 
     55 C          32.4234  -49.7307  -53.6077 C.2       3 UNK         0.4908 
     56 O          32.5118  -48.5837  -53.1644 O.2       3 UNK        -0.5102 
     57 CA         33.4825  -50.2508  -54.5854 C.3       3 UNK         0.0241 
     58 CB         32.9353  -50.2796  -56.0245 C.3       3 UNK        -0.1971 
     59 N          34.6417  -49.3648  -54.5289 N.am      3 UNK        -0.4139 
     60 C          35.9232  -49.7439  -54.5575 C.2       2 UNK         0.5016 
     61 O          36.2859  -50.9124  -54.7035 O.2       2 UNK        -0.5319 
     62 CA         36.9927  -48.6434  -54.4087 C.3       2 UNK         0.0286 
     63 CB         37.7043  -48.4031  -55.7509 C.3       2 UNK        -0.1963 
     64 N          36.4765  -47.3616  -53.9136 N.am      2 UNK        -0.4790 
     65 C          36.1022  -47.1189  -52.6502 C.2       1 UNK         0.5024 
     66 O          36.1325  -47.9694  -51.7568 O.2       1 UNK        -0.4888 
     67 H67        37.4679  -43.7706  -48.7377 H         1 UNK         0.0892 
     68 H68        36.1080  -44.8589  -48.4558 H         1 UNK         0.0892 
     69 H69        37.7564  -45.4886  -48.4483 H         1 UNK         0.0892 
     70 H70        35.0297  -45.4235  -50.3338 H         1 UNK         0.3107 
     71 H71        36.1782  -44.9919  -52.9519 H         1 UNK         0.0773 
     72 H72        33.4972  -46.3543  -52.3682 H         1 UNK         0.0680 
     73 H73        33.6959  -44.6404  -52.2128 H         1 UNK         0.0680 
     74 H74        33.4000  -43.1884  -55.5605 H         1 UNK         0.0650 
     75 H75        33.5239  -42.9935  -53.8356 H         1 UNK         0.0650 
     76 H76        31.5500  -43.6673  -52.3595 H         1 UNK         0.1397 
     77 H77        27.7218  -43.8248  -54.2916 H         1 UNK         0.1363 
     78 H78        31.3066  -43.7438  -56.6395 H         1 UNK         0.1355 
     79 H79        29.2088  -44.2138  -57.6990 H         1 UNK         0.0707 
     80 H80        27.7887  -44.5708  -56.7412 H         1 UNK         0.0707 
     81 H81        27.6512  -41.4190  -59.5204 H         1 UNK         0.1034 
     82 H82        28.4287  -42.9732  -59.5550 H         1 UNK         0.1034 
     83 H83        25.4824  -42.5543  -58.8477 H         1 UNK         0.0482 
     84 H84        25.4141  -43.7613  -62.6769 H         1 UNK         0.3460 
     85 H85        25.8045  -44.8522  -61.3693 H         1 UNK         0.3460 
     86 H86        27.0516  -45.0513  -59.2145 H         1 UNK         0.2989 
     87 H87        24.6684  -46.8550  -57.3930 H         1 UNK         0.0559 
     88 H88        23.7102  -47.2300  -59.6558 H         1 UNK         0.0848 
     89 H89        24.7342  -48.5714  -59.1692 H         1 UNK         0.0848 
     90 H90        25.3224  -47.3886  -60.3365 H         1 UNK         0.0848 
     91 H91        26.6808  -47.4694  -56.9161 H         1 UNK         0.3144 
     92 H92        29.5392  -48.3771  -58.8140 H         1 UNK         0.0727 
     93 H93        29.2742  -46.6882  -56.2693 H         1 UNK         0.0790 
     94 H94        30.2627  -46.3030  -57.6787 H         1 UNK         0.0790 
     95 H95        30.6583  -47.6903  -56.6838 H         1 UNK         0.0790 
     96 H96        28.6685  -49.1320  -56.2048 H         1 UNK         0.3215 
     97 H97        26.6388  -51.9073  -57.1972 H         1 UNK         0.0863 
     98 H98        28.1860  -52.9531  -55.5429 H         1 UNK         0.0808 
     99 H99        29.3359  -51.6338  -55.7578 H         1 UNK         0.0808 
    100 H100       28.9763  -52.7156  -57.0927 H         1 UNK         0.0808 
    101 H101       27.3716  -50.4261  -54.7597 H         1 UNK         0.3118 
    102 H102       24.3164  -48.6918  -54.5398 H         1 UNK         0.0546 
    103 H103       25.0390  -51.1997  -52.9278 H         1 UNK         0.0828 
    104 H104       23.5213  -50.9294  -53.7720 H         1 UNK         0.0828 
    105 H105       23.9508  -49.9112  -52.4090 H         1 UNK         0.0828 
    106 H106       26.4359  -49.1670  -52.6558 H         1 UNK         0.3005 
    107 H107       28.6000  -46.6031  -53.8149 H         1 UNK         0.1257 
    108 H108       26.7837  -46.6821  -51.3490 H         1 UNK         0.0775 
    109 H109       26.8391  -45.3788  -52.5029 H         1 UNK         0.0775 
    110 H110       27.8879  -43.3105  -51.8785 H         1 UNK         0.0840 
    111 H111       29.4474  -43.1002  -51.1338 H         1 UNK         0.0840 
    112 H112       28.9177  -48.1982  -51.5695 H         1 UNK         0.2987 
    113 H113       30.5904  -49.7316  -51.5869 H         1 UNK         0.0785 
    114 H114       28.5587  -51.1997  -51.5809 H         1 UNK         0.0798 
    115 H115       30.0215  -52.1677  -51.6208 H         1 UNK         0.0798 
    116 H116       29.0698  -51.9459  -53.0884 H         1 UNK         0.0798 
    117 H117       31.4103  -51.4857  -53.7291 H         1 UNK         0.3079 
    118 H118       33.7638  -51.2599  -54.2763 H         1 UNK         0.0794 
    119 H119       33.6837  -50.6523  -56.7241 H         1 UNK         0.0786 
    120 H120       32.6317  -49.2864  -56.3579 H         1 UNK         0.0786 
    121 H121       32.0638  -50.9304  -56.1058 H         1 UNK         0.0786 
    122 H122       34.4219  -48.3982  -54.3227 H         1 UNK         0.3032 
    123 H123       37.7301  -49.0133  -53.6923 H         1 UNK         0.1094 
    124 H124       37.0180  -48.0242  -56.5094 H         1 UNK         0.0794 
    125 H125       38.5200  -47.6874  -55.6461 H         1 UNK         0.0794 
    126 H126       38.1364  -49.3279  -56.1360 H         1 UNK         0.0794 
    127 H127       36.3912  -46.6172  -54.5923 H         1 UNK         0.3016 
@<TRIPOS>BOND
     1    1    2 1    
     2    1   67 1    
     3    1   68 1    
     4    1   69 1    
     5    2    3 2    
     6    2    4 am   BACKBONE|DICT|INTERRES
     7    4    5 1    
     8    4   70 1    
     9    5    6 1    
    10    5   65 1    
    11    5   71 1    
    12    6    7 1    
    13    6   72 1    
    14    6   73 1    
    15    7    8 1    
    16    8    9 1    
    17    8   74 1    
    18    8   75 1    
    19    9   10 ar   
    20    9   14 ar   
    21   10   11 ar   
    22   10   76 1    
    23   11   12 ar   
    24   11   48 1    
    25   12   13 ar   
    26   12   77 1    
    27   13   14 ar   
    28   13   15 1    
    29   14   78 1    
    30   15   16 1    
    31   15   79 1    
    32   15   80 1    
    33   16   17 1    
    34   17   18 1    
    35   17   81 1    
    36   17   82 1    
    37   18   19 1    
    38   18   22 1    
    39   18   83 1    
    40   19   20 am   BACKBONE|DICT|INTERRES
    41   19   21 2    
    42   20   84 1    
    43   20   85 1    
    44   22   23 am   BACKBONE|DICT|INTERRES
    45   22   86 1    
    46   23   24 2    
    47   23   25 1    
    48   25   26 1    
    49   25   27 1    
    50   25   87 1    
    51   26   88 1    
    52   26   89 1    
    53   26   90 1    
    54   27   28 am   BACKBONE|DICT|INTERRES
    55   27   91 1    
    56   28   29 2    
    57   28   30 1    
    58   30   31 1    
    59   30   32 1    
    60   30   92 1    
    61   31   93 1    
    62   31   94 1    
    63   31   95 1    
    64   32   33 am   BACKBONE|DICT|INTERRES
    65   32   96 1    
    66   33   34 2    
    67   33   35 1    
    68   35   36 1    
    69   35   37 1    
    70   35   97 1    
    71   36   98 1    
    72   36   99 1    
    73   36  100 1    
    74   37   38 am   BACKBONE|DICT|INTERRES
    75   37  101 1    
    76   38   39 2    
    77   38   40 1    
    78   40   41 1    
    79   40   42 1    
    80   40  102 1    
    81   41  103 1    
    82   41  104 1    
    83   41  105 1    
    84   42   43 am   BACKBONE|DICT|INTERRES
    85   42  106 1    
    86   43   44 2    
    87   43   45 1    
    88   45   46 1    
    89   45   49 1    
    90   45  107 1    
    91   46   47 1    
    92   46  108 1    
    93   46  109 1    
    94   47   48 1    
    95   48  110 1    
    96   48  111 1    
    97   49   50 am   BACKBONE|DICT|INTERRES
    98   49  112 1    
    99   50   51 2    
   100   50   52 1    
   101   52   53 1    
   102   52   54 1    
   103   52  113 1    
   104   53  114 1    
   105   53  115 1    
   106   53  116 1    
   107   54   55 am   BACKBONE|DICT|INTERRES
   108   54  117 1    
   109   55   56 2    
   110   55   57 1    
   111   57   58 1    
   112   57   59 1    
   113   57  118 1    
   114   58  119 1    
   115   58  120 1    
   116   58  121 1    
   117   59   60 am   BACKBONE|DICT|INTERRES
   118   59  122 1    
   119   60   61 2    
   120   60   62 1    
   121   62   63 1    
   122   62   64 1    
   123   62  123 1    
   124   63  124 1    
   125   63  125 1    
   126   63  126 1    
   127   64   65 am   BACKBONE|DICT|INTERRES
   128   64  127 1    
   129   65   66 2    
@<TRIPOS>SUBSTRUCTURE
     1 UNK         1 GROUP             0       ****    0 ROOT    
