@<TRIPOS>MOLECULE
3R134
127   129    1
SMALL
USER_CHARGES


@<TRIPOS>ATOM
      1 CA         35.9483  -43.3605  -55.2020 C.3       0 UNK        -0.1968 
      2 C          35.5955  -44.8041  -54.8753 C.2       0 UNK         0.4852 
      3 O          36.1998  -45.7221  -55.4322 O.2       0 UNK        -0.5359 
      4 N          34.6151  -45.0082  -53.9871 N.am      1 UNK        -0.4300 
      5 CA         34.1883  -46.3209  -53.4968 C.3       1 UNK         0.0863 
      6 C6         32.7164  -46.3020  -53.0183 C.3       11 UNK        -0.0953 
      7 S7         32.3197  -45.0874  -51.7134 S.3       11 UNK        -0.2369 
      8 C8         31.3760  -43.8177  -52.6264 C.3       11 UNK         0.0226 
      9 C9         30.1681  -44.3550  -53.3920 C.ar      11 UNK        -0.0699 
     10 C10        29.2872  -45.2781  -52.8125 C.ar      11 UNK        -0.0804 
     11 C11        28.1861  -45.7562  -53.5302 C.ar      11 UNK        -0.0871 
     12 C12        27.9527  -45.2835  -54.8240 C.ar      11 UNK        -0.1008 
     13 C13        28.8152  -44.3556  -55.4096 C.ar      11 UNK        -0.0735 
     14 C14        29.9242  -43.8999  -54.6927 C.ar      11 UNK        -0.0945 
     15 C15        28.5323  -43.8424  -56.8112 C.3       11 UNK         0.0169 
     16 S16        27.6224  -42.2690  -56.7551 S.3       11 UNK        -0.2669 
     17 C17        26.7874  -42.2820  -58.3796 C.3       11 UNK        -0.0850 
     18 CA         25.2709  -42.5983  -58.2693 C.3       10 UNK         0.0855 
     19 C          24.5670  -42.5066  -59.6561 C.2       10 UNK         0.5543 
     20 N          23.8547  -43.5265  -60.1220 N.am      10 UNK        -0.7343 
     21 O          24.6643  -41.4797  -60.3234 O.2       10 UNK        -0.5027 
     22 N          25.0177  -43.8569  -57.5481 N.am      10 UNK        -0.4495 
     23 C          23.9169  -44.1164  -56.8330 C.2       10 UNK         0.4903 
     24 O          23.0094  -43.3022  -56.6535 O.2       10 UNK        -0.4860 
     25 CA         23.8180  -45.5290  -56.2207 C.3       9 UNK         0.0227 
     26 CB         22.3770  -45.8970  -55.8085 C.3       9 UNK        -0.1964 
     27 N          24.3887  -46.5851  -57.0688 N.am      9 UNK        -0.4231 
     28 C          24.0560  -46.8952  -58.3298 C.2       9 UNK         0.5014 
     29 O          23.2544  -46.2530  -59.0115 O.2       9 UNK        -0.5270 
     30 CA         24.7734  -48.1178  -58.9337 C.3       8 UNK         0.0284 
     31 CB         23.9589  -48.7611  -60.0715 C.3       8 UNK        -0.1977 
     32 N          26.1103  -47.7899  -59.4345 N.am      8 UNK        -0.4342 
     33 C          27.1593  -47.4423  -58.6805 C.2       8 UNK         0.5039 
     34 O          27.1192  -47.3390  -57.4498 O.2       8 UNK        -0.5547 
     35 CA         28.4711  -47.1583  -59.4211 C.3       7 UNK         0.0281 
     36 CB         28.3810  -45.8818  -60.2802 C.3       7 UNK        -0.1963 
     37 N          29.5215  -47.0296  -58.4185 N.am      7 UNK        -0.4444 
     38 C          30.8388  -47.1143  -58.6242 C.2       7 UNK         0.5104 
     39 O          31.3523  -47.2580  -59.7342 O.2       7 UNK        -0.5100 
     40 CA         31.7432  -47.0311  -57.3811 C.3       6 UNK         0.0396 
     41 CB         32.3192  -45.6149  -57.2251 C.3       6 UNK        -0.1801 
     42 N          31.0731  -47.4182  -56.1345 N.am      6 UNK        -0.4747 
     43 C          30.7666  -48.6801  -55.8009 C.2       6 UNK         0.5012 
     44 O          30.9442  -49.6485  -56.5440 O.2       6 UNK        -0.5003 
     45 CA         30.1506  -48.8853  -54.4025 C.3       5 UNK         0.0782 
     46 C46        28.6081  -48.7631  -54.4397 C.3       11 UNK        -0.0868 
     47 S47        27.9606  -48.4404  -52.7633 S.3       11 UNK        -0.2515 
     48 C48        27.2326  -46.7734  -52.9146 C.3       11 UNK         0.0199 
     49 N          30.5602  -50.1700  -53.8278 N.am      5 UNK        -0.4607 
     50 C          31.8004  -50.5009  -53.4529 C.2       4 UNK         0.5031 
     51 O          32.7692  -49.7326  -53.4769 O.2       4 UNK        -0.5119 
     52 CA         31.9823  -51.9507  -52.9851 C.3       4 UNK         0.0263 
     53 CB         32.1153  -52.9024  -54.1863 C.3       4 UNK        -0.1967 
     54 N          33.1919  -52.0267  -52.1769 N.am      4 UNK        -0.4237 
     55 C          33.3122  -52.6301  -50.9892 C.2       3 UNK         0.4908 
     56 O          32.4329  -53.3262  -50.4797 O.2       3 UNK        -0.5102 
     57 CA         34.6372  -52.4166  -50.2294 C.3       3 UNK         0.0241 
     58 CB         35.5270  -53.6662  -50.3381 C.3       3 UNK        -0.1971 
     59 N          35.3966  -51.2455  -50.6858 N.am      3 UNK        -0.4139 
     60 C          35.0117  -49.9706  -50.5295 C.2       2 UNK         0.5016 
     61 O          33.9932  -49.6352  -49.9230 O.2       2 UNK        -0.5319 
     62 CA         35.8787  -48.8853  -51.1812 C.3       2 UNK         0.0286 
     63 CB         37.1690  -49.4001  -51.8566 C.3       2 UNK        -0.1963 
     64 N          35.0601  -48.1738  -52.1613 N.am      2 UNK        -0.4790 
     65 C          35.1528  -46.8660  -52.4227 C.2       1 UNK         0.5024 
     66 O          35.9470  -46.1106  -51.8542 O.2       1 UNK        -0.4888 
     67 H67        36.9895  -43.1627  -54.9488 H         1 UNK         0.0892 
     68 H68        35.8144  -43.1736  -56.2672 H         1 UNK         0.0892 
     69 H69        35.3258  -42.6537  -54.6534 H         1 UNK         0.0892 
     70 H70        34.1957  -44.2200  -53.5165 H         1 UNK         0.3107 
     71 H71        34.2373  -47.0197  -54.3357 H         1 UNK         0.0773 
     72 H72        32.0773  -46.1248  -53.8806 H         1 UNK         0.0680 
     73 H73        32.4270  -47.2820  -52.6393 H         1 UNK         0.0680 
     74 H74        32.0608  -43.3070  -53.3048 H         1 UNK         0.0650 
     75 H75        31.0298  -43.0657  -51.9165 H         1 UNK         0.0650 
     76 H76        29.4625  -45.6334  -51.8062 H         1 UNK         0.1397 
     77 H77        27.0955  -45.6386  -55.3791 H         1 UNK         0.1363 
     78 H78        30.5873  -43.1752  -55.1454 H         1 UNK         0.1355 
     79 H79        27.9505  -44.5855  -57.3561 H         1 UNK         0.0707 
     80 H80        29.4603  -43.7054  -57.3674 H         1 UNK         0.0707 
     81 H81        26.9316  -41.2952  -58.8239 H         1 UNK         0.1034 
     82 H82        27.2827  -42.9804  -59.0538 H         1 UNK         0.1034 
     83 H83        24.8328  -41.7920  -57.6777 H         1 UNK         0.0482 
     84 H84        23.4062  -43.4387  -61.0197 H         1 UNK         0.3460 
     85 H85        23.7326  -44.3777  -59.5841 H         1 UNK         0.3460 
     86 H86        25.7022  -44.5881  -57.6610 H         1 UNK         0.2989 
     87 H87        24.4245  -45.5061  -55.3142 H         1 UNK         0.0559 
     88 H88        21.9826  -45.1881  -55.0794 H         1 UNK         0.0848 
     89 H89        22.3347  -46.8852  -55.3506 H         1 UNK         0.0848 
     90 H90        21.7006  -45.8945  -56.6641 H         1 UNK         0.0848 
     91 H91        25.1657  -47.1041  -56.6723 H         1 UNK         0.3144 
     92 H92        24.8797  -48.8640  -58.1430 H         1 UNK         0.0727 
     93 H93        24.4253  -49.6816  -60.4231 H         1 UNK         0.0790 
     94 H94        23.8531  -48.0904  -60.9254 H         1 UNK         0.0790 
     95 H95        22.9539  -49.0179  -59.7337 H         1 UNK         0.0790 
     96 H96        26.2283  -47.8234  -60.4370 H         1 UNK         0.3215 
     97 H97        28.6943  -48.0172  -60.0576 H         1 UNK         0.0863 
     98 H98        29.3024  -45.7122  -60.8373 H         1 UNK         0.0808 
     99 H99        28.1978  -44.9991  -59.6715 H         1 UNK         0.0808 
    100 H100       27.5758  -45.9474  -61.0126 H         1 UNK         0.0808 
    101 H101       29.1651  -46.9781  -57.4714 H         1 UNK         0.3118 
    102 H102       32.5790  -47.7156  -57.5418 H         1 UNK         0.0546 
    103 H103       31.5394  -44.8760  -57.0450 H         1 UNK         0.0828 
    104 H104       32.8540  -45.3101  -58.1257 H         1 UNK         0.0828 
    105 H105       33.0276  -45.5643  -56.3994 H         1 UNK         0.0828 
    106 H106       30.8490  -46.6696  -55.4942 H         1 UNK         0.3005 
    107 H107       30.5440  -48.0997  -53.7561 H         1 UNK         0.1257 
    108 H108       28.2829  -47.9710  -55.1133 H         1 UNK         0.0775 
    109 H109       28.1525  -49.6755  -54.8287 H         1 UNK         0.0775 
    110 H110       26.3157  -46.8455  -53.5019 H         1 UNK         0.0840 
    111 H111       26.9297  -46.4297  -51.9245 H         1 UNK         0.0840 
    112 H112       29.8395  -50.8750  -53.7846 H         1 UNK         0.2987 
    113 H113       31.1109  -52.2319  -52.3894 H         1 UNK         0.0785 
    114 H114       31.2218  -52.8753  -54.8114 H         1 UNK         0.0798 
    115 H115       32.2512  -53.9336  -53.8600 H         1 UNK         0.0798 
    116 H116       32.9636  -52.6366  -54.8186 H         1 UNK         0.0798 
    117 H117       33.9387  -51.4216  -52.4889 H         1 UNK         0.3079 
    118 H118       34.3856  -52.2649  -49.1775 H         1 UNK         0.0794 
    119 H119       36.4334  -53.5621  -49.7413 H         1 UNK         0.0786 
    120 H120       35.8226  -53.8638  -51.3693 H         1 UNK         0.0786 
    121 H121       35.0029  -54.5514  -49.9745 H         1 UNK         0.0786 
    122 H122       36.2513  -51.4293  -51.1917 H         1 UNK         0.3032 
    123 H123       36.1614  -48.2054  -50.3738 H         1 UNK         0.1094 
    124 H124       36.9574  -50.0643  -52.6956 H         1 UNK         0.0794 
    125 H125       37.7623  -48.5703  -52.2416 H         1 UNK         0.0794 
    126 H126       37.8034  -49.9358  -51.1489 H         1 UNK         0.0794 
    127 H127       34.3280  -48.7164  -52.6135 H         1 UNK         0.3016 
@<TRIPOS>BOND
     1    1    2 1    
     2    1   67 1    
     3    1   68 1    
     4    1   69 1    
     5    2    3 2    
     6    2    4 am   BACKBONE|DICT|INTERRES
     7    4    5 1    
     8    4   70 1    
     9    5    6 1    
    10    5   65 1    
    11    5   71 1    
    12    6    7 1    
    13    6   72 1    
    14    6   73 1    
    15    7    8 1    
    16    8    9 1    
    17    8   74 1    
    18    8   75 1    
    19    9   10 ar   
    20    9   14 ar   
    21   10   11 ar   
    22   10   76 1    
    23   11   12 ar   
    24   11   48 1    
    25   12   13 ar   
    26   12   77 1    
    27   13   14 ar   
    28   13   15 1    
    29   14   78 1    
    30   15   16 1    
    31   15   79 1    
    32   15   80 1    
    33   16   17 1    
    34   17   18 1    
    35   17   81 1    
    36   17   82 1    
    37   18   19 1    
    38   18   22 1    
    39   18   83 1    
    40   19   20 am   BACKBONE|DICT|INTERRES
    41   19   21 2    
    42   20   84 1    
    43   20   85 1    
    44   22   23 am   BACKBONE|DICT|INTERRES
    45   22   86 1    
    46   23   24 2    
    47   23   25 1    
    48   25   26 1    
    49   25   27 1    
    50   25   87 1    
    51   26   88 1    
    52   26   89 1    
    53   26   90 1    
    54   27   28 am   BACKBONE|DICT|INTERRES
    55   27   91 1    
    56   28   29 2    
    57   28   30 1    
    58   30   31 1    
    59   30   32 1    
    60   30   92 1    
    61   31   93 1    
    62   31   94 1    
    63   31   95 1    
    64   32   33 am   BACKBONE|DICT|INTERRES
    65   32   96 1    
    66   33   34 2    
    67   33   35 1    
    68   35   36 1    
    69   35   37 1    
    70   35   97 1    
    71   36   98 1    
    72   36   99 1    
    73   36  100 1    
    74   37   38 am   BACKBONE|DICT|INTERRES
    75   37  101 1    
    76   38   39 2    
    77   38   40 1    
    78   40   41 1    
    79   40   42 1    
    80   40  102 1    
    81   41  103 1    
    82   41  104 1    
    83   41  105 1    
    84   42   43 am   BACKBONE|DICT|INTERRES
    85   42  106 1    
    86   43   44 2    
    87   43   45 1    
    88   45   46 1    
    89   45   49 1    
    90   45  107 1    
    91   46   47 1    
    92   46  108 1    
    93   46  109 1    
    94   47   48 1    
    95   48  110 1    
    96   48  111 1    
    97   49   50 am   BACKBONE|DICT|INTERRES
    98   49  112 1    
    99   50   51 2    
   100   50   52 1    
   101   52   53 1    
   102   52   54 1    
   103   52  113 1    
   104   53  114 1    
   105   53  115 1    
   106   53  116 1    
   107   54   55 am   BACKBONE|DICT|INTERRES
   108   54  117 1    
   109   55   56 2    
   110   55   57 1    
   111   57   58 1    
   112   57   59 1    
   113   57  118 1    
   114   58  119 1    
   115   58  120 1    
   116   58  121 1    
   117   59   60 am   BACKBONE|DICT|INTERRES
   118   59  122 1    
   119   60   61 2    
   120   60   62 1    
   121   62   63 1    
   122   62   64 1    
   123   62  123 1    
   124   63  124 1    
   125   63  125 1    
   126   63  126 1    
   127   64   65 am   BACKBONE|DICT|INTERRES
   128   64  127 1    
   129   65   66 2    
@<TRIPOS>SUBSTRUCTURE
     1 UNK         1 GROUP             0       ****    0 ROOT    
