@<TRIPOS>MOLECULE
3R134
127   129    1
SMALL
USER_CHARGES


@<TRIPOS>ATOM
      1 CA         35.5255  -43.6338  -51.1787 C.3       0 UNK        -0.1968 
      2 C          36.1461  -44.8267  -51.8915 C.2       0 UNK         0.4852 
      3 O          37.2197  -45.2856  -51.4976 O.2       0 UNK        -0.5359 
      4 N          35.4814  -45.3253  -52.9406 N.am      1 UNK        -0.4300 
      5 CA         35.8676  -46.5198  -53.6949 C.3       1 UNK         0.0863 
      6 C6         35.2160  -46.5564  -55.1038 C.3       11 UNK        -0.0953 
      7 S7         33.4095  -46.2678  -55.1208 S.3       11 UNK        -0.2369 
      8 C8         33.3678  -44.5309  -55.6661 C.3       11 UNK         0.0226 
      9 C9         31.9584  -43.9644  -55.6217 C.ar      11 UNK        -0.0699 
     10 C10        31.3955  -43.5796  -54.4023 C.ar      11 UNK        -0.0804 
     11 C11        30.0969  -43.0663  -54.3533 C.ar      11 UNK        -0.0871 
     12 C12        29.3653  -42.9297  -55.5356 C.ar      11 UNK        -0.1008 
     13 C13        29.9235  -43.2894  -56.7691 C.ar      11 UNK        -0.0735 
     14 C14        31.2209  -43.8114  -56.7988 C.ar      11 UNK        -0.0945 
     15 C15        29.1474  -43.1673  -58.0798 C.3       11 UNK         0.0169 
     16 S16        27.9006  -41.8305  -58.1017 S.3       11 UNK        -0.2669 
     17 C17        26.4245  -42.7781  -58.5935 C.3       11 UNK        -0.0850 
     18 CA         25.8004  -43.5828  -57.4063 C.3       10 UNK         0.0855 
     19 C          24.4878  -42.9568  -56.8462 C.2       10 UNK         0.5543 
     20 N          23.5112  -43.7477  -56.4187 N.am      10 UNK        -0.7343 
     21 O          24.3618  -41.7374  -56.7659 O.2       10 UNK        -0.5027 
     22 N          25.7364  -45.0276  -57.6789 N.am      10 UNK        -0.4495 
     23 C          25.0909  -45.6121  -58.6968 C.2       10 UNK         0.4903 
     24 O          24.4127  -44.9980  -59.5221 O.2       10 UNK        -0.4860 
     25 CA         25.2440  -47.1409  -58.8102 C.3       9 UNK         0.0227 
     26 CB         24.8365  -47.6884  -60.1943 C.3       9 UNK        -0.1964 
     27 N          26.5831  -47.6120  -58.4368 N.am      9 UNK        -0.4231 
     28 C          27.7614  -47.3085  -59.0077 C.2       9 UNK         0.5014 
     29 O          27.8816  -46.5621  -59.9801 O.2       9 UNK        -0.5270 
     30 CA         29.0330  -47.9338  -58.3923 C.3       8 UNK         0.0284 
     31 CB         29.9067  -46.8574  -57.7306 C.3       8 UNK        -0.1977 
     32 N          28.7568  -48.9837  -57.4093 N.am      8 UNK        -0.4342 
     33 C          28.2808  -50.2012  -57.7060 C.2       8 UNK         0.5039 
     34 O          28.1182  -50.6160  -58.8537 O.2       8 UNK        -0.5547 
     35 CA         27.8715  -51.0837  -56.5185 C.3       7 UNK         0.0281 
     36 CB         29.0693  -51.9079  -56.0340 C.3       7 UNK        -0.1963 
     37 N          27.3253  -50.2931  -55.4097 N.am      7 UNK        -0.4444 
     38 C          26.1144  -49.7167  -55.4318 C.2       7 UNK         0.5104 
     39 O          25.3317  -49.8074  -56.3769 O.2       7 UNK        -0.5100 
     40 CA         25.7236  -48.8631  -54.2156 C.3       6 UNK         0.0396 
     41 CB         25.2571  -49.7534  -53.0530 C.3       6 UNK        -0.1801 
     42 N          26.8058  -47.9886  -53.7627 N.am      6 UNK        -0.4747 
     43 C          27.2900  -46.9438  -54.4512 C.2       6 UNK         0.5012 
     44 O          26.8720  -46.5936  -55.5553 O.2       6 UNK        -0.5003 
     45 CA         28.4414  -46.1602  -53.7926 C.3       5 UNK         0.0782 
     46 C46        27.8666  -44.9934  -52.9457 C.3       11 UNK        -0.0868 
     47 S47        29.1320  -44.1036  -51.9720 S.3       11 UNK        -0.2515 
     48 C48        29.4829  -42.6604  -53.0223 C.3       11 UNK         0.0199 
     49 N          29.3541  -47.0058  -53.0145 N.am      5 UNK        -0.4607 
     50 C          30.0690  -48.0406  -53.4719 C.2       4 UNK         0.5031 
     51 O          29.9466  -48.5153  -54.6051 O.2       4 UNK        -0.5119 
     52 CA         31.0838  -48.6073  -52.4624 C.3       4 UNK         0.0263 
     53 CB         30.3852  -49.3094  -51.2780 C.3       4 UNK        -0.1967 
     54 N          32.1075  -49.4548  -53.0816 N.am      4 UNK        -0.4237 
     55 C          31.9880  -50.7018  -53.5631 C.2       3 UNK         0.4908 
     56 O          30.9819  -51.4008  -53.4465 O.2       3 UNK        -0.5102 
     57 CA         33.2119  -51.2827  -54.2980 C.3       3 UNK         0.0241 
     58 CB         33.0711  -51.0797  -55.8160 C.3       3 UNK        -0.1971 
     59 N          34.4806  -50.6982  -53.8578 N.am      3 UNK        -0.4139 
     60 C          35.0546  -50.9235  -52.6677 C.2       2 UNK         0.5016 
     61 O          34.6216  -51.7225  -51.8367 O.2       2 UNK        -0.5319 
     62 CA         36.3191  -50.1078  -52.3404 C.3       2 UNK         0.0286 
     63 CB         37.5819  -50.9356  -52.6300 C.3       2 UNK        -0.1963 
     64 N          36.4110  -48.8232  -53.0486 N.am      2 UNK        -0.4790 
     65 C          35.5642  -47.7961  -52.8854 C.2       1 UNK         0.5024 
     66 O          34.5657  -47.8439  -52.1630 O.2       1 UNK        -0.4888 
     67 H67        34.5882  -43.3240  -51.6408 H         1 UNK         0.0892 
     68 H68        35.3235  -43.8833  -50.1373 H         1 UNK         0.0892 
     69 H69        36.2099  -42.7862  -51.1999 H         1 UNK         0.0892 
     70 H70        34.5779  -44.9476  -53.1835 H         1 UNK         0.3107 
     71 H71        36.9496  -46.4780  -53.8398 H         1 UNK         0.0773 
     72 H72        35.4142  -47.5096  -55.5974 H         1 UNK         0.0680 
     73 H73        35.6957  -45.8079  -55.7364 H         1 UNK         0.0680 
     74 H74        33.7747  -44.4648  -56.6764 H         1 UNK         0.0650 
     75 H75        34.0192  -43.9272  -55.0331 H         1 UNK         0.0650 
     76 H76        31.9609  -43.6939  -53.4877 H         1 UNK         0.1397 
     77 H77        28.3592  -42.5394  -55.4872 H         1 UNK         0.1363 
     78 H78        31.6578  -44.1070  -57.7429 H         1 UNK         0.1355 
     79 H79        29.8373  -42.9934  -58.9070 H         1 UNK         0.0707 
     80 H80        28.6715  -44.1285  -58.2766 H         1 UNK         0.0707 
     81 H81        25.7037  -42.0890  -59.0375 H         1 UNK         0.1034 
     82 H82        26.7147  -43.4329  -59.4168 H         1 UNK         0.1034 
     83 H83        26.4825  -43.5285  -56.5582 H         1 UNK         0.0482 
     84 H84        23.6097  -44.7488  -56.4691 H         1 UNK         0.3460 
     85 H85        22.6683  -43.3385  -56.0474 H         1 UNK         0.3460 
     86 H86        26.2226  -45.6215  -57.0101 H         1 UNK         0.2989 
     87 H87        24.5608  -47.5671  -58.0743 H         1 UNK         0.0559 
     88 H88        25.4430  -47.2607  -60.9933 H         1 UNK         0.0848 
     89 H89        23.7947  -47.4548  -60.4169 H         1 UNK         0.0848 
     90 H90        24.9405  -48.7726  -60.2375 H         1 UNK         0.0848 
     91 H91        26.6084  -48.2128  -57.6237 H         1 UNK         0.3144 
     92 H92        29.6036  -48.3788  -59.2101 H         1 UNK         0.0727 
     93 H93        29.3686  -46.3314  -56.9421 H         1 UNK         0.0790 
     94 H94        30.2245  -46.1151  -58.4631 H         1 UNK         0.0790 
     95 H95        30.8090  -47.2843  -57.2914 H         1 UNK         0.0790 
     96 H96        28.9299  -48.7556  -56.4347 H         1 UNK         0.3215 
     97 H97        27.0980  -51.7746  -56.8616 H         1 UNK         0.0863 
     98 H98        28.8151  -52.5233  -55.1709 H         1 UNK         0.0808 
     99 H99        29.8977  -51.2585  -55.7557 H         1 UNK         0.0808 
    100 H100       29.4282  -52.5751  -56.8186 H         1 UNK         0.0808 
    101 H101       27.9331  -50.1290  -54.6186 H         1 UNK         0.3118 
    102 H102       24.8850  -48.2290  -54.5120 H         1 UNK         0.0546 
    103 H103       26.0586  -50.3938  -52.6826 H         1 UNK         0.0828 
    104 H104       24.4387  -50.4039  -53.3649 H         1 UNK         0.0828 
    105 H105       24.8917  -49.1558  -52.2177 H         1 UNK         0.0828 
    106 H106       27.2194  -48.1965  -52.8651 H         1 UNK         0.3005 
    107 H107       29.0339  -45.7332  -54.6041 H         1 UNK         0.1257 
    108 H108       27.1264  -45.3671  -52.2351 H         1 UNK         0.0775 
    109 H109       27.3362  -44.2834  -53.5835 H         1 UNK         0.0775 
    110 H110       28.5656  -42.0879  -53.1691 H         1 UNK         0.0840 
    111 H111       30.1728  -41.9995  -52.4958 H         1 UNK         0.0840 
    112 H112       29.5298  -46.6780  -52.0754 H         1 UNK         0.2987 
    113 H113       31.6361  -47.7549  -52.0627 H         1 UNK         0.0785 
    114 H114       29.7953  -48.6029  -50.6934 H         1 UNK         0.0798 
    115 H115       31.1113  -49.7584  -50.6001 H         1 UNK         0.0798 
    116 H116       29.7059  -50.0949  -51.6099 H         1 UNK         0.0798 
    117 H117       33.0011  -48.9948  -53.2014 H         1 UNK         0.3079 
    118 H118       33.2429  -52.3555  -54.0954 H         1 UNK         0.0794 
    119 H119       32.1860  -51.5896  -56.1966 H         1 UNK         0.0786 
    120 H120       33.9281  -51.4852  -56.3541 H         1 UNK         0.0786 
    121 H121       32.9770  -50.0241  -56.0762 H         1 UNK         0.0786 
    122 H122       34.9248  -50.0411  -54.4820 H         1 UNK         0.3032 
    123 H123       36.2887  -49.8931  -51.2695 H         1 UNK         0.1094 
    124 H124       38.4829  -50.4123  -52.3092 H         1 UNK         0.0794 
    125 H125       37.5562  -51.8868  -52.0959 H         1 UNK         0.0794 
    126 H126       37.6830  -51.1617  -53.6923 H         1 UNK         0.0794 
    127 H127       37.2036  -48.7068  -53.6649 H         1 UNK         0.3016 
@<TRIPOS>BOND
     1    1    2 1    
     2    1   67 1    
     3    1   68 1    
     4    1   69 1    
     5    2    3 2    
     6    2    4 am   BACKBONE|DICT|INTERRES
     7    4    5 1    
     8    4   70 1    
     9    5    6 1    
    10    5   65 1    
    11    5   71 1    
    12    6    7 1    
    13    6   72 1    
    14    6   73 1    
    15    7    8 1    
    16    8    9 1    
    17    8   74 1    
    18    8   75 1    
    19    9   10 ar   
    20    9   14 ar   
    21   10   11 ar   
    22   10   76 1    
    23   11   12 ar   
    24   11   48 1    
    25   12   13 ar   
    26   12   77 1    
    27   13   14 ar   
    28   13   15 1    
    29   14   78 1    
    30   15   16 1    
    31   15   79 1    
    32   15   80 1    
    33   16   17 1    
    34   17   18 1    
    35   17   81 1    
    36   17   82 1    
    37   18   19 1    
    38   18   22 1    
    39   18   83 1    
    40   19   20 am   BACKBONE|DICT|INTERRES
    41   19   21 2    
    42   20   84 1    
    43   20   85 1    
    44   22   23 am   BACKBONE|DICT|INTERRES
    45   22   86 1    
    46   23   24 2    
    47   23   25 1    
    48   25   26 1    
    49   25   27 1    
    50   25   87 1    
    51   26   88 1    
    52   26   89 1    
    53   26   90 1    
    54   27   28 am   BACKBONE|DICT|INTERRES
    55   27   91 1    
    56   28   29 2    
    57   28   30 1    
    58   30   31 1    
    59   30   32 1    
    60   30   92 1    
    61   31   93 1    
    62   31   94 1    
    63   31   95 1    
    64   32   33 am   BACKBONE|DICT|INTERRES
    65   32   96 1    
    66   33   34 2    
    67   33   35 1    
    68   35   36 1    
    69   35   37 1    
    70   35   97 1    
    71   36   98 1    
    72   36   99 1    
    73   36  100 1    
    74   37   38 am   BACKBONE|DICT|INTERRES
    75   37  101 1    
    76   38   39 2    
    77   38   40 1    
    78   40   41 1    
    79   40   42 1    
    80   40  102 1    
    81   41  103 1    
    82   41  104 1    
    83   41  105 1    
    84   42   43 am   BACKBONE|DICT|INTERRES
    85   42  106 1    
    86   43   44 2    
    87   43   45 1    
    88   45   46 1    
    89   45   49 1    
    90   45  107 1    
    91   46   47 1    
    92   46  108 1    
    93   46  109 1    
    94   47   48 1    
    95   48  110 1    
    96   48  111 1    
    97   49   50 am   BACKBONE|DICT|INTERRES
    98   49  112 1    
    99   50   51 2    
   100   50   52 1    
   101   52   53 1    
   102   52   54 1    
   103   52  113 1    
   104   53  114 1    
   105   53  115 1    
   106   53  116 1    
   107   54   55 am   BACKBONE|DICT|INTERRES
   108   54  117 1    
   109   55   56 2    
   110   55   57 1    
   111   57   58 1    
   112   57   59 1    
   113   57  118 1    
   114   58  119 1    
   115   58  120 1    
   116   58  121 1    
   117   59   60 am   BACKBONE|DICT|INTERRES
   118   59  122 1    
   119   60   61 2    
   120   60   62 1    
   121   62   63 1    
   122   62   64 1    
   123   62  123 1    
   124   63  124 1    
   125   63  125 1    
   126   63  126 1    
   127   64   65 am   BACKBONE|DICT|INTERRES
   128   64  127 1    
   129   65   66 2    
@<TRIPOS>SUBSTRUCTURE
     1 UNK         1 GROUP             0       ****    0 ROOT    
