@<TRIPOS>MOLECULE
3R134
127   129    1
SMALL
USER_CHARGES


@<TRIPOS>ATOM
      1 CA         30.8905  -49.5665  -59.0439 C.3       0 UNK        -0.1968 
      2 C          31.9418  -48.8362  -58.2242 C.2       0 UNK         0.4852 
      3 O          33.1252  -48.8976  -58.5609 O.2       0 UNK        -0.5359 
      4 N          31.5058  -48.1474  -57.1609 N.am      1 UNK        -0.4300 
      5 CA         32.3209  -47.3804  -56.2121 C.3       1 UNK         0.0863 
      6 C6         33.1293  -46.2158  -56.8540 C.3       11 UNK        -0.0953 
      7 S7         32.0699  -44.9921  -57.6873 S.3       11 UNK        -0.2369 
      8 C8         32.2689  -43.5499  -56.5962 C.3       11 UNK         0.0226 
      9 C9         31.4407  -43.6707  -55.3252 C.ar      11 UNK        -0.0699 
     10 C10        32.0508  -43.7998  -54.0723 C.ar      11 UNK        -0.0804 
     11 C11        31.2756  -43.8269  -52.9066 C.ar      11 UNK        -0.0871 
     12 C12        29.8824  -43.7279  -53.0051 C.ar      11 UNK        -0.1008 
     13 C13        29.2643  -43.6156  -54.2533 C.ar      11 UNK        -0.0735 
     14 C14        30.0490  -43.5960  -55.4068 C.ar      11 UNK        -0.0945 
     15 C15        27.7541  -43.4843  -54.3636 C.3       11 UNK         0.0169 
     16 S16        26.9588  -45.1146  -54.4084 S.3       11 UNK        -0.2669 
     17 C17        25.2565  -44.6628  -54.8891 C.3       11 UNK        -0.0850 
     18 CA         24.8976  -45.1945  -56.3069 C.3       10 UNK         0.0855 
     19 C          23.3837  -45.1192  -56.6810 C.2       10 UNK         0.5543 
     20 N          22.4782  -44.9564  -55.7245 N.am      10 UNK        -0.7343 
     21 O          23.0120  -45.2751  -57.8427 O.2       10 UNK        -0.5027 
     22 N          25.7875  -44.6596  -57.3517 N.am      10 UNK        -0.4495 
     23 C          25.7447  -43.4393  -57.9068 C.2       10 UNK         0.4903 
     24 O          24.9696  -42.5522  -57.5472 O.2       10 UNK        -0.4860 
     25 CA         26.7315  -43.1340  -59.0547 C.3       9 UNK         0.0227 
     26 CB         27.7308  -42.0391  -58.6455 C.3       9 UNK        -0.1964 
     27 N          27.4690  -44.3127  -59.5216 N.am      9 UNK        -0.4231 
     28 C          26.9858  -45.2319  -60.3689 C.2       9 UNK         0.5014 
     29 O          25.8922  -45.1425  -60.9286 O.2       9 UNK        -0.5270 
     30 CA         27.8446  -46.4896  -60.6117 C.3       8 UNK         0.0284 
     31 CB         29.3624  -46.2645  -60.4114 C.3       8 UNK        -0.1977 
     32 N          27.3621  -47.6221  -59.8079 N.am      8 UNK        -0.4342 
     33 C          27.2773  -47.6678  -58.4702 C.2       8 UNK         0.5039 
     34 O          27.6566  -46.7476  -57.7434 O.2       8 UNK        -0.5547 
     35 CA         26.6056  -48.9113  -57.8467 C.3       7 UNK         0.0281 
     36 CB         27.0680  -50.2433  -58.4789 C.3       7 UNK        -0.1963 
     37 N          26.7393  -48.9587  -56.3828 N.am      7 UNK        -0.4444 
     38 C          27.8770  -49.0267  -55.6767 C.2       7 UNK         0.5104 
     39 O          29.0042  -49.1421  -56.1694 O.2       7 UNK        -0.5100 
     40 CA         27.7234  -48.9734  -54.1523 C.3       6 UNK         0.0396 
     41 CB         27.3429  -50.3504  -53.5823 C.3       6 UNK        -0.1801 
     42 N          28.9947  -48.5502  -53.5800 N.am      6 UNK        -0.4747 
     43 C          29.1553  -47.7624  -52.5112 C.2       6 UNK         0.5012 
     44 O          28.2276  -47.3514  -51.8113 O.2       6 UNK        -0.5003 
     45 CA         30.6204  -47.4261  -52.1646 C.3       5 UNK         0.0782 
     46 C46        30.7816  -46.4308  -50.9845 C.3       11 UNK        -0.0868 
     47 S47        32.4062  -45.6068  -51.0675 S.3       11 UNK        -0.2515 
     48 C48        31.9427  -43.9068  -51.5374 C.3       11 UNK         0.0199 
     49 N          31.4012  -48.6601  -51.9954 N.am      5 UNK        -0.4607 
     50 C          31.1803  -49.6244  -51.0882 C.2       4 UNK         0.5031 
     51 O          30.3293  -49.5654  -50.2004 O.2       4 UNK        -0.5119 
     52 CA         32.0473  -50.8870  -51.1994 C.3       4 UNK         0.0263 
     53 CB         31.4902  -51.8266  -52.2825 C.3       4 UNK        -0.1967 
     54 N          33.4506  -50.5903  -51.4852 N.am      4 UNK        -0.4237 
     55 C          34.3143  -50.0494  -50.6119 C.2       3 UNK         0.4908 
     56 O          34.0192  -49.7509  -49.4541 O.2       3 UNK        -0.5102 
     57 CA         35.7617  -49.8290  -51.0939 C.3       3 UNK         0.0241 
     58 CB         36.6942  -50.9001  -50.5034 C.3       3 UNK        -0.1971 
     59 N          35.8820  -49.8435  -52.5544 N.am      3 UNK        -0.4139 
     60 C          35.5250  -48.8263  -53.3486 C.2       2 UNK         0.5016 
     61 O          35.1844  -47.7206  -52.9226 O.2       2 UNK        -0.5319 
     62 CA         35.5438  -49.0837  -54.8699 C.3       2 UNK         0.0286 
     63 CB         35.4364  -50.5780  -55.2553 C.3       2 UNK        -0.1963 
     64 N          34.5147  -48.3076  -55.5722 N.am      2 UNK        -0.4790 
     65 C          33.1868  -48.3436  -55.3737 C.2       1 UNK         0.5024 
     66 O          32.6308  -49.0881  -54.5621 O.2       1 UNK        -0.4888 
     67 H67        30.7569  -50.5810  -58.6694 H         1 UNK         0.0892 
     68 H68        29.9339  -49.0488  -58.9964 H         1 UNK         0.0892 
     69 H69        31.1892  -49.6208  -60.0904 H         1 UNK         0.0892 
     70 H70        30.5274  -48.2489  -56.8984 H         1 UNK         0.3107 
     71 H71        31.6144  -46.9320  -55.5120 H         1 UNK         0.0773 
     72 H72        33.7212  -45.7059  -56.0918 H         1 UNK         0.0680 
     73 H73        33.8420  -46.5832  -57.5932 H         1 UNK         0.0680 
     74 H74        31.9478  -42.6603  -57.1400 H         1 UNK         0.0650 
     75 H75        33.3249  -43.3978  -56.3684 H         1 UNK         0.0650 
     76 H76        33.1286  -43.8547  -53.9998 H         1 UNK         0.1397 
     77 H77        29.2740  -43.7298  -52.1111 H         1 UNK         0.1363 
     78 H78        29.5788  -43.5115  -56.3747 H         1 UNK         0.1355 
     79 H79        27.4930  -42.9278  -55.2652 H         1 UNK         0.0707 
     80 H80        27.3622  -42.9124  -53.5213 H         1 UNK         0.0707 
     81 H81        25.1135  -43.5822  -54.8354 H         1 UNK         0.1034 
     82 H82        24.6022  -45.0969  -54.1324 H         1 UNK         0.1034 
     83 H83        25.1031  -46.2653  -56.2985 H         1 UNK         0.0482 
     84 H84        21.5028  -44.9339  -55.9787 H         1 UNK         0.3460 
     85 H85        22.7432  -44.8457  -54.7593 H         1 UNK         0.3460 
     86 H86        26.4996  -45.3148  -57.6672 H         1 UNK         0.2989 
     87 H87        26.1403  -42.7454  -59.8865 H         1 UNK         0.0559 
     88 H88        27.2106  -41.1212  -58.3680 H         1 UNK         0.0848 
     89 H89        28.4066  -41.7901  -59.4638 H         1 UNK         0.0848 
     90 H90        28.3333  -42.3379  -57.7901 H         1 UNK         0.0848 
     91 H91        28.3483  -44.5134  -59.0658 H         1 UNK         0.3144 
     92 H92        27.6942  -46.7630  -61.6574 H         1 UNK         0.0727 
     93 H93        29.9309  -47.1286  -60.7546 H         1 UNK         0.0790 
     94 H94        29.6318  -46.0930  -59.3690 H         1 UNK         0.0790 
     95 H95        29.7118  -45.4065  -60.9873 H         1 UNK         0.0790 
     96 H96        26.9817  -48.3951  -60.3361 H         1 UNK         0.3215 
     97 H97        25.5384  -48.8027  -58.0465 H         1 UNK         0.0863 
     98 H98        26.5498  -51.0886  -58.0258 H         1 UNK         0.0808 
     99 H99        28.1362  -50.4109  -58.3500 H         1 UNK         0.0808 
    100 H100       26.8557  -50.2828  -59.5473 H         1 UNK         0.0808 
    101 H101       25.8774  -48.8477  -55.8684 H         1 UNK         0.3118 
    102 H102       26.9461  -48.2456  -53.9097 H         1 UNK         0.0546 
    103 H103       26.3907  -50.6953  -53.9868 H         1 UNK         0.0828 
    104 H104       27.2401  -50.3142  -52.4976 H         1 UNK         0.0828 
    105 H105       28.0932  -51.1053  -53.8214 H         1 UNK         0.0828 
    106 H106       29.8023  -48.8275  -54.1250 H         1 UNK         0.3005 
    107 H107       31.0071  -46.9337  -53.0588 H         1 UNK         0.1257 
    108 H108       30.6867  -46.9351  -50.0223 H         1 UNK         0.0775 
    109 H109       30.0016  -45.6698  -50.9906 H         1 UNK         0.0775 
    110 H110       31.2910  -43.4875  -50.7691 H         1 UNK         0.0840 
    111 H111       32.8411  -43.2878  -51.5360 H         1 UNK         0.0840 
    112 H112       32.0917  -48.8354  -52.7195 H         1 UNK         0.2987 
    113 H113       31.9998  -51.4084  -50.2407 H         1 UNK         0.0785 
    114 H114       32.0408  -52.7669  -52.3140 H         1 UNK         0.0798 
    115 H115       31.5368  -51.3761  -53.2750 H         1 UNK         0.0798 
    116 H116       30.4451  -52.0708  -52.0858 H         1 UNK         0.0798 
    117 H117       33.7734  -50.7864  -52.4206 H         1 UNK         0.3079 
    118 H118       36.0850  -48.8535  -50.7234 H         1 UNK         0.0794 
    119 H119       36.6538  -50.8944  -49.4131 H         1 UNK         0.0786 
    120 H120       37.7318  -50.7234  -50.7874 H         1 UNK         0.0786 
    121 H121       36.4203  -51.9030  -50.8338 H         1 UNK         0.0786 
    122 H122       36.1806  -50.7099  -52.9794 H         1 UNK         0.3032 
    123 H123       36.5068  -48.7139  -55.2261 H         1 UNK         0.1094 
    124 H124       35.3967  -50.6983  -56.3383 H         1 UNK         0.0794 
    125 H125       36.3008  -51.1464  -54.9105 H         1 UNK         0.0794 
    126 H126       34.5409  -51.0449  -54.8431 H         1 UNK         0.0794 
    127 H127       34.8627  -47.6550  -56.2603 H         1 UNK         0.3016 
@<TRIPOS>BOND
     1    1    2 1    
     2    1   67 1    
     3    1   68 1    
     4    1   69 1    
     5    2    3 2    
     6    2    4 am   BACKBONE|DICT|INTERRES
     7    4    5 1    
     8    4   70 1    
     9    5    6 1    
    10    5   65 1    
    11    5   71 1    
    12    6    7 1    
    13    6   72 1    
    14    6   73 1    
    15    7    8 1    
    16    8    9 1    
    17    8   74 1    
    18    8   75 1    
    19    9   10 ar   
    20    9   14 ar   
    21   10   11 ar   
    22   10   76 1    
    23   11   12 ar   
    24   11   48 1    
    25   12   13 ar   
    26   12   77 1    
    27   13   14 ar   
    28   13   15 1    
    29   14   78 1    
    30   15   16 1    
    31   15   79 1    
    32   15   80 1    
    33   16   17 1    
    34   17   18 1    
    35   17   81 1    
    36   17   82 1    
    37   18   19 1    
    38   18   22 1    
    39   18   83 1    
    40   19   20 am   BACKBONE|DICT|INTERRES
    41   19   21 2    
    42   20   84 1    
    43   20   85 1    
    44   22   23 am   BACKBONE|DICT|INTERRES
    45   22   86 1    
    46   23   24 2    
    47   23   25 1    
    48   25   26 1    
    49   25   27 1    
    50   25   87 1    
    51   26   88 1    
    52   26   89 1    
    53   26   90 1    
    54   27   28 am   BACKBONE|DICT|INTERRES
    55   27   91 1    
    56   28   29 2    
    57   28   30 1    
    58   30   31 1    
    59   30   32 1    
    60   30   92 1    
    61   31   93 1    
    62   31   94 1    
    63   31   95 1    
    64   32   33 am   BACKBONE|DICT|INTERRES
    65   32   96 1    
    66   33   34 2    
    67   33   35 1    
    68   35   36 1    
    69   35   37 1    
    70   35   97 1    
    71   36   98 1    
    72   36   99 1    
    73   36  100 1    
    74   37   38 am   BACKBONE|DICT|INTERRES
    75   37  101 1    
    76   38   39 2    
    77   38   40 1    
    78   40   41 1    
    79   40   42 1    
    80   40  102 1    
    81   41  103 1    
    82   41  104 1    
    83   41  105 1    
    84   42   43 am   BACKBONE|DICT|INTERRES
    85   42  106 1    
    86   43   44 2    
    87   43   45 1    
    88   45   46 1    
    89   45   49 1    
    90   45  107 1    
    91   46   47 1    
    92   46  108 1    
    93   46  109 1    
    94   47   48 1    
    95   48  110 1    
    96   48  111 1    
    97   49   50 am   BACKBONE|DICT|INTERRES
    98   49  112 1    
    99   50   51 2    
   100   50   52 1    
   101   52   53 1    
   102   52   54 1    
   103   52  113 1    
   104   53  114 1    
   105   53  115 1    
   106   53  116 1    
   107   54   55 am   BACKBONE|DICT|INTERRES
   108   54  117 1    
   109   55   56 2    
   110   55   57 1    
   111   57   58 1    
   112   57   59 1    
   113   57  118 1    
   114   58  119 1    
   115   58  120 1    
   116   58  121 1    
   117   59   60 am   BACKBONE|DICT|INTERRES
   118   59  122 1    
   119   60   61 2    
   120   60   62 1    
   121   62   63 1    
   122   62   64 1    
   123   62  123 1    
   124   63  124 1    
   125   63  125 1    
   126   63  126 1    
   127   64   65 am   BACKBONE|DICT|INTERRES
   128   64  127 1    
   129   65   66 2    
@<TRIPOS>SUBSTRUCTURE
     1 UNK         1 GROUP             0       ****    0 ROOT    
