@<TRIPOS>MOLECULE
3R134
127   129    1
SMALL
USER_CHARGES


@<TRIPOS>ATOM
      1 CA         30.4056  -44.9655  -46.9095 C.3       0 UNK        -0.1968 
      2 C          31.5159  -45.5346  -47.7811 C.2       0 UNK         0.4852 
      3 O          32.3739  -46.2625  -47.2788 O.2       0 UNK        -0.5359 
      4 N          31.5103  -45.2021  -49.0788 N.am      1 UNK        -0.4300 
      5 CA         32.4548  -45.7102  -50.0768 C.3       1 UNK         0.0863 
      6 C6         32.4421  -44.8242  -51.3462 C.3       11 UNK        -0.0953 
      7 S7         33.8522  -45.1569  -52.4538 S.3       11 UNK        -0.2369 
      8 C8         33.9647  -43.5946  -53.3796 C.3       11 UNK         0.0226 
      9 C9         33.0786  -43.5973  -54.6173 C.ar      11 UNK        -0.0699 
     10 C10        33.5712  -44.1140  -55.8175 C.ar      11 UNK        -0.0804 
     11 C11        32.7955  -44.0759  -56.9777 C.ar      11 UNK        -0.0871 
     12 C12        31.5141  -43.5246  -56.9312 C.ar      11 UNK        -0.1008 
     13 C13        30.9978  -43.0028  -55.7361 C.ar      11 UNK        -0.0735 
     14 C14        31.7911  -43.0505  -54.5821 C.ar      11 UNK        -0.0945 
     15 C15        29.6069  -42.3648  -55.6377 C.3       11 UNK         0.0169 
     16 S16        28.7585  -42.0316  -57.2269 S.3       11 UNK        -0.2669 
     17 C17        28.1914  -43.7037  -57.6909 C.3       11 UNK        -0.0850 
     18 CA         26.6463  -43.8003  -57.8100 C.3       10 UNK         0.0855 
     19 C          26.1604  -43.5667  -59.2677 C.2       10 UNK         0.5543 
     20 N          26.1076  -42.3164  -59.7054 N.am      10 UNK        -0.7343 
     21 O          25.8707  -44.4997  -60.0141 O.2       10 UNK        -0.5027 
     22 N          26.1434  -45.0498  -57.2200 N.am      10 UNK        -0.4495 
     23 C          24.8718  -45.2417  -56.8439 C.2       10 UNK         0.4903 
     24 O          23.9839  -44.3996  -56.9924 O.2       10 UNK        -0.4860 
     25 CA         24.5489  -46.5595  -56.1178 C.3       9 UNK         0.0227 
     26 CB         23.0380  -46.8779  -56.0625 C.3       9 UNK        -0.1964 
     27 N          25.3317  -47.7054  -56.5901 N.am      9 UNK        -0.4231 
     28 C          25.2088  -48.3707  -57.7493 C.2       9 UNK         0.5014 
     29 O          24.4089  -48.0576  -58.6321 O.2       9 UNK        -0.5270 
     30 CA         26.1070  -49.6095  -57.9727 C.3       8 UNK         0.0284 
     31 CB         26.8647  -49.5124  -59.3086 C.3       8 UNK        -0.1977 
     32 N          27.0690  -49.8589  -56.8938 N.am      8 UNK        -0.4342 
     33 C          26.7798  -50.3642  -55.6864 C.2       8 UNK         0.5039 
     34 O          25.6660  -50.7821  -55.3695 O.2       8 UNK        -0.5547 
     35 CA         27.9038  -50.3355  -54.6330 C.3       7 UNK         0.0281 
     36 CB         28.7211  -51.6361  -54.6679 C.3       7 UNK        -0.1963 
     37 N          28.8012  -49.1830  -54.7781 N.am      7 UNK        -0.4444 
     38 C          28.4294  -47.8995  -54.6641 C.2       7 UNK         0.5104 
     39 O          27.2878  -47.5421  -54.3763 O.2       7 UNK        -0.5100 
     40 CA         29.4870  -46.8352  -54.9963 C.3       6 UNK         0.0396 
     41 CB         30.4280  -46.5991  -53.8105 C.3       6 UNK        -0.1801 
     42 N          30.2608  -47.1832  -56.1894 N.am      6 UNK        -0.4747 
     43 C          29.7607  -47.1885  -57.4327 C.2       6 UNK         0.5012 
     44 O          28.6079  -46.8464  -57.6993 O.2       6 UNK        -0.5003 
     45 CA         30.6718  -47.7161  -58.5598 C.3       5 UNK         0.0782 
     46 C46        31.5465  -46.5992  -59.1951 C.3       11 UNK        -0.0868 
     47 S47        33.1972  -46.3952  -58.4276 S.3       11 UNK        -0.2515 
     48 C48        33.3639  -44.5924  -58.2889 C.3       11 UNK         0.0199 
     49 N          31.4671  -48.8722  -58.1377 N.am      5 UNK        -0.4607 
     50 C          30.9835  -50.0681  -57.7870 C.2       4 UNK         0.5031 
     51 O          29.7941  -50.3708  -57.8579 O.2       4 UNK        -0.5119 
     52 CA         31.9981  -51.0716  -57.2093 C.3       4 UNK         0.0263 
     53 CB         32.6902  -51.8497  -58.3393 C.3       4 UNK        -0.1967 
     54 N          33.0103  -50.4424  -56.3485 N.am      4 UNK        -0.4237 
     55 C          32.7306  -49.7809  -55.2165 C.2       3 UNK         0.4908 
     56 O          31.5859  -49.6295  -54.7874 O.2       3 UNK        -0.5102 
     57 CA         33.9150  -49.1276  -54.4817 C.3       3 UNK         0.0241 
     58 CB         34.2607  -47.7758  -55.1274 C.3       3 UNK        -0.1971 
     59 N          33.6407  -48.9083  -53.0582 N.am      3 UNK        -0.4139 
     60 C          33.4660  -49.8786  -52.1497 C.2       2 UNK         0.5016 
     61 O          33.5693  -51.0788  -52.4112 O.2       2 UNK        -0.5319 
     62 CA         33.1531  -49.4562  -50.7011 C.3       2 UNK         0.0286 
     63 CB         34.1213  -50.1305  -49.7116 C.3       2 UNK        -0.1963 
     64 N          33.2185  -48.0047  -50.4927 N.am      2 UNK        -0.4790 
     65 C          32.1575  -47.1942  -50.3886 C.2       1 UNK         0.5024 
     66 O          30.9909  -47.5674  -50.5305 O.2       1 UNK        -0.4888 
     67 H67        29.7262  -44.3296  -47.4768 H         1 UNK         0.0892 
     68 H68        29.8236  -45.7744  -46.4685 H         1 UNK         0.0892 
     69 H69        30.8304  -44.3709  -46.1012 H         1 UNK         0.0892 
     70 H70        30.7610  -44.6283  -49.4377 H         1 UNK         0.3107 
     71 H71        33.4514  -45.6451  -49.6336 H         1 UNK         0.0773 
     72 H72        32.4980  -43.7766  -51.0465 H         1 UNK         0.0680 
     73 H73        31.5068  -44.9239  -51.8945 H         1 UNK         0.0680 
     74 H74        35.0036  -43.4491  -53.6793 H         1 UNK         0.0650 
     75 H75        33.7221  -42.7496  -52.7339 H         1 UNK         0.0650 
     76 H76        34.5670  -44.5348  -55.8521 H         1 UNK         0.1397 
     77 H77        30.9379  -43.4941  -57.8427 H         1 UNK         0.1363 
     78 H78        31.4110  -42.6462  -53.6538 H         1 UNK         0.1355 
     79 H79        28.9686  -42.9915  -55.0130 H         1 UNK         0.0707 
     80 H80        29.7020  -41.4118  -55.1152 H         1 UNK         0.0707 
     81 H81        28.6886  -44.0178  -58.6110 H         1 UNK         0.1034 
     82 H82        28.5539  -44.3895  -56.9270 H         1 UNK         0.1034 
     83 H83        26.2115  -43.0018  -57.2045 H         1 UNK         0.0482 
     84 H84        26.3777  -41.5496  -59.1084 H         1 UNK         0.3460 
     85 H85        25.8095  -42.1369  -60.6514 H         1 UNK         0.3460 
     86 H86        26.8073  -45.8121  -57.1491 H         1 UNK         0.2989 
     87 H87        24.8708  -46.4024  -55.0876 H         1 UNK         0.0559 
     88 H88        22.6018  -46.9596  -57.0583 H         1 UNK         0.0848 
     89 H89        22.4931  -46.0928  -55.5370 H         1 UNK         0.0848 
     90 H90        22.8473  -47.8114  -55.5332 H         1 UNK         0.0848 
     91 H91        26.0460  -48.0150  -55.9396 H         1 UNK         0.3144 
     92 H92        25.4403  -50.4721  -58.0310 H         1 UNK         0.0727 
     93 H93        27.4773  -50.3970  -59.4842 H         1 UNK         0.0790 
     94 H94        27.5167  -48.6401  -59.3396 H         1 UNK         0.0790 
     95 H95        26.1726  -49.4291  -60.1475 H         1 UNK         0.0790 
     96 H96        28.0382  -49.6320  -57.0929 H         1 UNK         0.3215 
     97 H97        27.4311  -50.2571  -53.6517 H         1 UNK         0.0863 
     98 H98        29.5042  -51.6349  -53.9093 H         1 UNK         0.0808 
     99 H99        29.1941  -51.7896  -55.6374 H         1 UNK         0.0808 
    100 H100       28.0838  -52.5005  -54.4772 H         1 UNK         0.0808 
    101 H101       29.7857  -49.3814  -54.9532 H         1 UNK         0.3118 
    102 H102       28.9660  -45.8967  -55.1924 H         1 UNK         0.0546 
    103 H103       29.8680  -46.2397  -52.9467 H         1 UNK         0.0828 
    104 H104       31.1814  -45.8509  -54.0531 H         1 UNK         0.0828 
    105 H105       30.9445  -47.5066  -53.5009 H         1 UNK         0.0828 
    106 H106       31.1997  -47.5237  -56.0435 H         1 UNK         0.3005 
    107 H107       29.9920  -48.0721  -59.3375 H         1 UNK         0.1257 
    108 H108       31.0164  -45.6450  -59.2151 H         1 UNK         0.0775 
    109 H109       31.7234  -46.8472  -60.2427 H         1 UNK         0.0775 
    110 H110       34.4231  -44.3372  -58.3475 H         1 UNK         0.0840 
    111 H111       32.8926  -44.1031  -59.1427 H         1 UNK         0.0840 
    112 H112       32.4591  -48.7031  -58.0515 H         1 UNK         0.2987 
    113 H113       31.4420  -51.7841  -56.5968 H         1 UNK         0.0785 
    114 H114       31.9560  -52.3402  -58.9803 H         1 UNK         0.0798 
    115 H115       33.3423  -52.6285  -57.9435 H         1 UNK         0.0798 
    116 H116       33.2914  -51.1967  -58.9731 H         1 UNK         0.0798 
    117 H117       33.9726  -50.5200  -56.6458 H         1 UNK         0.3079 
    118 H118       34.7796  -49.7901  -54.5591 H         1 UNK         0.0794 
    119 H119       33.4161  -47.0855  -55.1013 H         1 UNK         0.0786 
    120 H120       34.5497  -47.9009  -56.1712 H         1 UNK         0.0786 
    121 H121       35.0981  -47.2951  -54.6213 H         1 UNK         0.0786 
    122 H122       33.5208  -47.9519  -52.7586 H         1 UNK         0.3032 
    123 H123       32.1457  -49.8194  -50.4844 H         1 UNK         0.1094 
    124 H124       35.1570  -49.8474  -49.9030 H         1 UNK         0.0794 
    125 H125       33.8845  -49.8626  -48.6816 H         1 UNK         0.0794 
    126 H126       34.0622  -51.2177  -49.7803 H         1 UNK         0.0794 
    127 H127       34.1431  -47.6101  -50.3836 H         1 UNK         0.3016 
@<TRIPOS>BOND
     1    1    2 1    
     2    1   67 1    
     3    1   68 1    
     4    1   69 1    
     5    2    3 2    
     6    2    4 am   BACKBONE|DICT|INTERRES
     7    4    5 1    
     8    4   70 1    
     9    5    6 1    
    10    5   65 1    
    11    5   71 1    
    12    6    7 1    
    13    6   72 1    
    14    6   73 1    
    15    7    8 1    
    16    8    9 1    
    17    8   74 1    
    18    8   75 1    
    19    9   10 ar   
    20    9   14 ar   
    21   10   11 ar   
    22   10   76 1    
    23   11   12 ar   
    24   11   48 1    
    25   12   13 ar   
    26   12   77 1    
    27   13   14 ar   
    28   13   15 1    
    29   14   78 1    
    30   15   16 1    
    31   15   79 1    
    32   15   80 1    
    33   16   17 1    
    34   17   18 1    
    35   17   81 1    
    36   17   82 1    
    37   18   19 1    
    38   18   22 1    
    39   18   83 1    
    40   19   20 am   BACKBONE|DICT|INTERRES
    41   19   21 2    
    42   20   84 1    
    43   20   85 1    
    44   22   23 am   BACKBONE|DICT|INTERRES
    45   22   86 1    
    46   23   24 2    
    47   23   25 1    
    48   25   26 1    
    49   25   27 1    
    50   25   87 1    
    51   26   88 1    
    52   26   89 1    
    53   26   90 1    
    54   27   28 am   BACKBONE|DICT|INTERRES
    55   27   91 1    
    56   28   29 2    
    57   28   30 1    
    58   30   31 1    
    59   30   32 1    
    60   30   92 1    
    61   31   93 1    
    62   31   94 1    
    63   31   95 1    
    64   32   33 am   BACKBONE|DICT|INTERRES
    65   32   96 1    
    66   33   34 2    
    67   33   35 1    
    68   35   36 1    
    69   35   37 1    
    70   35   97 1    
    71   36   98 1    
    72   36   99 1    
    73   36  100 1    
    74   37   38 am   BACKBONE|DICT|INTERRES
    75   37  101 1    
    76   38   39 2    
    77   38   40 1    
    78   40   41 1    
    79   40   42 1    
    80   40  102 1    
    81   41  103 1    
    82   41  104 1    
    83   41  105 1    
    84   42   43 am   BACKBONE|DICT|INTERRES
    85   42  106 1    
    86   43   44 2    
    87   43   45 1    
    88   45   46 1    
    89   45   49 1    
    90   45  107 1    
    91   46   47 1    
    92   46  108 1    
    93   46  109 1    
    94   47   48 1    
    95   48  110 1    
    96   48  111 1    
    97   49   50 am   BACKBONE|DICT|INTERRES
    98   49  112 1    
    99   50   51 2    
   100   50   52 1    
   101   52   53 1    
   102   52   54 1    
   103   52  113 1    
   104   53  114 1    
   105   53  115 1    
   106   53  116 1    
   107   54   55 am   BACKBONE|DICT|INTERRES
   108   54  117 1    
   109   55   56 2    
   110   55   57 1    
   111   57   58 1    
   112   57   59 1    
   113   57  118 1    
   114   58  119 1    
   115   58  120 1    
   116   58  121 1    
   117   59   60 am   BACKBONE|DICT|INTERRES
   118   59  122 1    
   119   60   61 2    
   120   60   62 1    
   121   62   63 1    
   122   62   64 1    
   123   62  123 1    
   124   63  124 1    
   125   63  125 1    
   126   63  126 1    
   127   64   65 am   BACKBONE|DICT|INTERRES
   128   64  127 1    
   129   65   66 2    
@<TRIPOS>SUBSTRUCTURE
     1 UNK         1 GROUP             0       ****    0 ROOT    
