@<TRIPOS>MOLECULE
3R134
127   129    1
SMALL
USER_CHARGES


@<TRIPOS>ATOM
      1 CA         37.1434  -43.6353  -56.0146 C.3       0 UNK        -0.1968 
      2 C          36.1847  -44.5194  -55.2301 C.2       0 UNK         0.4852 
      3 O          36.0828  -44.3662  -54.0127 O.2       0 UNK        -0.5359 
      4 N          35.4883  -45.4287  -55.9280 N.am      1 UNK        -0.4300 
      5 CA         34.5131  -46.3976  -55.4077 C.3       1 UNK         0.0863 
      6 C6         33.2412  -45.7567  -54.7860 C.3       11 UNK        -0.0953 
      7 S7         32.3671  -44.6879  -55.9809 S.3       11 UNK        -0.2369 
      8 C8         32.4543  -43.0648  -55.1624 C.3       11 UNK         0.0226 
      9 C9         31.1961  -42.7894  -54.3527 C.ar      11 UNK        -0.0699 
     10 C10        31.0430  -43.3202  -53.0680 C.ar      11 UNK        -0.0804 
     11 C11        29.8710  -43.0867  -52.3402 C.ar      11 UNK        -0.0871 
     12 C12        28.8651  -42.2886  -52.8911 C.ar      11 UNK        -0.1008 
     13 C13        29.0060  -41.7566  -54.1746 C.ar      11 UNK        -0.0735 
     14 C14        30.1732  -42.0100  -54.9006 C.ar      11 UNK        -0.0945 
     15 C15        27.8809  -40.9427  -54.7976 C.3       11 UNK         0.0169 
     16 S16        26.3275  -41.8871  -54.9850 S.3       11 UNK        -0.2669 
     17 C17        26.8671  -43.5088  -55.6378 C.3       11 UNK        -0.0850 
     18 CA         26.6706  -43.6826  -57.1658 C.3       10 UNK         0.0855 
     19 C          27.8519  -43.0808  -57.9898 C.2       10 UNK         0.5543 
     20 N          28.6530  -43.8712  -58.6956 N.am      10 UNK        -0.7343 
     21 O          28.0316  -41.8671  -58.0166 O.2       10 UNK        -0.5027 
     22 N          26.3687  -45.0867  -57.4777 N.am      10 UNK        -0.4495 
     23 C          25.8108  -45.5093  -58.6186 C.2       10 UNK         0.4903 
     24 O          25.3861  -44.7521  -59.4932 O.2       10 UNK        -0.4860 
     25 CA         25.7232  -47.0351  -58.8115 C.3       9 UNK         0.0227 
     26 CB         25.4967  -47.4402  -60.2833 C.3       9 UNK        -0.1964 
     27 N          26.8703  -47.7607  -58.2508 N.am      9 UNK        -0.4231 
     28 C          28.1695  -47.6157  -58.5634 C.2       9 UNK         0.5014 
     29 O          28.5845  -46.7806  -59.3680 O.2       9 UNK        -0.5270 
     30 CA         29.1931  -48.5278  -57.8533 C.3       8 UNK         0.0284 
     31 CB         30.1852  -47.6901  -57.0265 C.3       8 UNK        -0.1977 
     32 N          28.5837  -49.5286  -56.9762 N.am      8 UNK        -0.4342 
     33 C          27.9026  -50.6131  -57.3673 C.2       8 UNK         0.5039 
     34 O          27.7949  -50.9740  -58.5392 O.2       8 UNK        -0.5547 
     35 CA         27.1589  -51.3800  -56.2609 C.3       7 UNK         0.0281 
     36 CB         28.0747  -52.4299  -55.6099 C.3       7 UNK        -0.1963 
     37 N          26.6174  -50.4795  -55.2339 N.am      7 UNK        -0.4444 
     38 C          25.5955  -49.6323  -55.4282 C.2       7 UNK         0.5104 
     39 O          24.9780  -49.5447  -56.4886 O.2       7 UNK        -0.5100 
     40 CA         25.2160  -48.7027  -54.2617 C.3       6 UNK         0.0396 
     41 CB         24.2598  -49.4167  -53.2937 C.3       6 UNK        -0.1801 
     42 N          26.3793  -48.2059  -53.5236 N.am      6 UNK        -0.4747 
     43 C          27.2471  -47.2942  -53.9892 C.2       6 UNK         0.5012 
     44 O          27.1353  -46.7397  -55.0844 O.2       6 UNK        -0.5003 
     45 CA         28.4766  -47.0004  -53.1002 C.3       5 UNK         0.0782 
     46 C46        28.1720  -45.8862  -52.0656 C.3       11 UNK        -0.0868 
     47 S47        29.6243  -45.5228  -51.0103 S.3       11 UNK        -0.2515 
     48 C48        29.6788  -43.7019  -50.9621 C.3       11 UNK         0.0199 
     49 N          29.0199  -48.2041  -52.4511 N.am      5 UNK        -0.4607 
     50 C          29.4437  -49.3031  -53.0829 C.2       4 UNK         0.5031 
     51 O          29.2885  -49.5008  -54.2878 O.2       4 UNK        -0.5119 
     52 CA         30.1312  -50.3783  -52.2235 C.3       4 UNK         0.0263 
     53 CB         29.0972  -51.3993  -51.7218 C.3       4 UNK        -0.1967 
     54 N          31.1818  -51.0804  -52.9697 N.am      4 UNK        -0.4237 
     55 C          32.2525  -50.4802  -53.5083 C.2       3 UNK         0.4908 
     56 O          32.5149  -49.2861  -53.3471 O.2       3 UNK        -0.5102 
     57 CA         33.1482  -51.3512  -54.4076 C.3       3 UNK         0.0241 
     58 CB         32.4160  -51.7030  -55.7161 C.3       3 UNK        -0.1971 
     59 N          34.3828  -50.6401  -54.7420 N.am      3 UNK        -0.4139 
     60 C          35.4592  -50.5425  -53.9498 C.2       2 UNK         0.5016 
     61 O          35.6235  -51.2049  -52.9241 O.2       2 UNK        -0.5319 
     62 CA         36.5237  -49.5084  -54.3671 C.3       2 UNK         0.0286 
     63 CB         37.5939  -50.1595  -55.2583 C.3       2 UNK        -0.1963 
     64 N          35.9408  -48.3545  -55.0653 N.am      2 UNK        -0.4790 
     65 C          35.1917  -47.4149  -54.4668 C.2       1 UNK         0.5024 
     66 O          35.0466  -47.3367  -53.2455 O.2       1 UNK        -0.4888 
     67 H67        37.1395  -43.8697  -57.0790 H         1 UNK         0.0892 
     68 H68        36.8667  -42.5878  -55.8982 H         1 UNK         0.0892 
     69 H69        38.1600  -43.7627  -55.6436 H         1 UNK         0.0892 
     70 H70        35.6385  -45.4811  -56.9258 H         1 UNK         0.3107 
     71 H71        34.1750  -46.9691  -56.2740 H         1 UNK         0.0773 
     72 H72        32.5428  -46.5348  -54.4711 H         1 UNK         0.0680 
     73 H73        33.4897  -45.1959  -53.8844 H         1 UNK         0.0680 
     74 H74        32.5784  -42.3000  -55.9304 H         1 UNK         0.0650 
     75 H75        33.3397  -42.9971  -54.5288 H         1 UNK         0.0650 
     76 H76        31.8234  -43.9360  -52.6429 H         1 UNK         0.1397 
     77 H77        27.9545  -42.1041  -52.3371 H         1 UNK         0.1363 
     78 H78        30.2790  -41.6135  -55.9016 H         1 UNK         0.1355 
     79 H79        28.1785  -40.5519  -55.7709 H         1 UNK         0.0707 
     80 H80        27.6861  -40.0707  -54.1720 H         1 UNK         0.0707 
     81 H81        26.2461  -44.2323  -55.1077 H         1 UNK         0.1034 
     82 H82        27.8864  -43.7606  -55.3445 H         1 UNK         0.1034 
     83 H83        25.7850  -43.1114  -57.4513 H         1 UNK         0.0482 
     84 H84        28.4987  -44.8719  -58.7498 H         1 UNK         0.3460 
     85 H85        29.4011  -43.4558  -59.2263 H         1 UNK         0.3460 
     86 H86        26.6873  -45.7734  -56.8006 H         1 UNK         0.2989 
     87 H87        24.8515  -47.3605  -58.2424 H         1 UNK         0.0559 
     88 H88        26.3092  -47.0986  -60.9256 H         1 UNK         0.0848 
     89 H89        24.5724  -47.0107  -60.6714 H         1 UNK         0.0848 
     90 H90        25.4182  -48.5223  -60.3886 H         1 UNK         0.0848 
     91 H91        26.6317  -48.4599  -57.5592 H         1 UNK         0.3144 
     92 H92        29.7512  -49.0536  -58.6304 H         1 UNK         0.0727 
     93 H93        30.9290  -48.3188  -56.5361 H         1 UNK         0.0790 
     94 H94        29.6775  -47.1117  -56.2542 H         1 UNK         0.0790 
     95 H95        30.7251  -46.9830  -57.6578 H         1 UNK         0.0790 
     96 H96        28.6946  -49.3782  -55.9731 H         1 UNK         0.3215 
     97 H97        26.3207  -51.9030  -56.7267 H         1 UNK         0.0863 
     98 H98        28.9471  -51.9761  -55.1400 H         1 UNK         0.0808 
     99 H99        28.4414  -53.1378  -56.3544 H         1 UNK         0.0808 
    100 H100       27.5438  -53.0051  -54.8513 H         1 UNK         0.0808 
    101 H101       27.1227  -50.4306  -54.3612 H         1 UNK         0.3118 
    102 H102       24.6894  -47.8429  -54.6821 H         1 UNK         0.0546 
    103 H103       23.9174  -48.7447  -52.5066 H         1 UNK         0.0828 
    104 H104       24.7297  -50.2790  -52.8190 H         1 UNK         0.0828 
    105 H105       23.3731  -49.7768  -53.8174 H         1 UNK         0.0828 
    106 H106       26.5564  -48.6119  -52.6159 H         1 UNK         0.3005 
    107 H107       29.2567  -46.6284  -53.7689 H         1 UNK         0.1257 
    108 H108       27.3466  -46.1786  -51.4138 H         1 UNK         0.0775 
    109 H109       27.8489  -44.9772  -52.5755 H         1 UNK         0.0775 
    110 H110       28.7655  -43.3340  -50.4915 H         1 UNK         0.0840 
    111 H111       30.5011  -43.3907  -50.3164 H         1 UNK         0.0840 
    112 H112       29.1889  -48.1167  -51.4591 H         1 UNK         0.2987 
    113 H113       30.5990  -49.8938  -51.3639 H         1 UNK         0.0785 
    114 H114       29.5586  -52.1456  -51.0748 H         1 UNK         0.0798 
    115 H115       28.3140  -50.9112  -51.1401 H         1 UNK         0.0798 
    116 H116       28.6122  -51.9239  -52.5457 H         1 UNK         0.0798 
    117 H117       31.0213  -52.0572  -53.1659 H         1 UNK         0.3079 
    118 H118       33.3937  -52.2717  -53.8735 H         1 UNK         0.0794 
    119 H119       31.5260  -52.3030  -55.5236 H         1 UNK         0.0786 
    120 H120       33.0534  -52.2826  -56.3843 H         1 UNK         0.0786 
    121 H121       32.0928  -50.8090  -56.2518 H         1 UNK         0.0786 
    122 H122       34.3362  -50.0229  -55.5380 H         1 UNK         0.3032 
    123 H123       37.0078  -49.1513  -53.4549 H         1 UNK         0.1094 
    124 H124       37.1732  -50.5306  -56.1937 H         1 UNK         0.0794 
    125 H125       38.3892  -49.4549  -55.5025 H         1 UNK         0.0794 
    126 H126       38.0585  -51.0067  -54.7517 H         1 UNK         0.0794 
    127 H127       36.0612  -48.3198  -56.0680 H         1 UNK         0.3016 
@<TRIPOS>BOND
     1    1    2 1    
     2    1   67 1    
     3    1   68 1    
     4    1   69 1    
     5    2    3 2    
     6    2    4 am   BACKBONE|DICT|INTERRES
     7    4    5 1    
     8    4   70 1    
     9    5    6 1    
    10    5   65 1    
    11    5   71 1    
    12    6    7 1    
    13    6   72 1    
    14    6   73 1    
    15    7    8 1    
    16    8    9 1    
    17    8   74 1    
    18    8   75 1    
    19    9   10 ar   
    20    9   14 ar   
    21   10   11 ar   
    22   10   76 1    
    23   11   12 ar   
    24   11   48 1    
    25   12   13 ar   
    26   12   77 1    
    27   13   14 ar   
    28   13   15 1    
    29   14   78 1    
    30   15   16 1    
    31   15   79 1    
    32   15   80 1    
    33   16   17 1    
    34   17   18 1    
    35   17   81 1    
    36   17   82 1    
    37   18   19 1    
    38   18   22 1    
    39   18   83 1    
    40   19   20 am   BACKBONE|DICT|INTERRES
    41   19   21 2    
    42   20   84 1    
    43   20   85 1    
    44   22   23 am   BACKBONE|DICT|INTERRES
    45   22   86 1    
    46   23   24 2    
    47   23   25 1    
    48   25   26 1    
    49   25   27 1    
    50   25   87 1    
    51   26   88 1    
    52   26   89 1    
    53   26   90 1    
    54   27   28 am   BACKBONE|DICT|INTERRES
    55   27   91 1    
    56   28   29 2    
    57   28   30 1    
    58   30   31 1    
    59   30   32 1    
    60   30   92 1    
    61   31   93 1    
    62   31   94 1    
    63   31   95 1    
    64   32   33 am   BACKBONE|DICT|INTERRES
    65   32   96 1    
    66   33   34 2    
    67   33   35 1    
    68   35   36 1    
    69   35   37 1    
    70   35   97 1    
    71   36   98 1    
    72   36   99 1    
    73   36  100 1    
    74   37   38 am   BACKBONE|DICT|INTERRES
    75   37  101 1    
    76   38   39 2    
    77   38   40 1    
    78   40   41 1    
    79   40   42 1    
    80   40  102 1    
    81   41  103 1    
    82   41  104 1    
    83   41  105 1    
    84   42   43 am   BACKBONE|DICT|INTERRES
    85   42  106 1    
    86   43   44 2    
    87   43   45 1    
    88   45   46 1    
    89   45   49 1    
    90   45  107 1    
    91   46   47 1    
    92   46  108 1    
    93   46  109 1    
    94   47   48 1    
    95   48  110 1    
    96   48  111 1    
    97   49   50 am   BACKBONE|DICT|INTERRES
    98   49  112 1    
    99   50   51 2    
   100   50   52 1    
   101   52   53 1    
   102   52   54 1    
   103   52  113 1    
   104   53  114 1    
   105   53  115 1    
   106   53  116 1    
   107   54   55 am   BACKBONE|DICT|INTERRES
   108   54  117 1    
   109   55   56 2    
   110   55   57 1    
   111   57   58 1    
   112   57   59 1    
   113   57  118 1    
   114   58  119 1    
   115   58  120 1    
   116   58  121 1    
   117   59   60 am   BACKBONE|DICT|INTERRES
   118   59  122 1    
   119   60   61 2    
   120   60   62 1    
   121   62   63 1    
   122   62   64 1    
   123   62  123 1    
   124   63  124 1    
   125   63  125 1    
   126   63  126 1    
   127   64   65 am   BACKBONE|DICT|INTERRES
   128   64  127 1    
   129   65   66 2    
@<TRIPOS>SUBSTRUCTURE
     1 UNK         1 GROUP             0       ****    0 ROOT    
