@<TRIPOS>MOLECULE
3R134
127   129    1
SMALL
USER_CHARGES


@<TRIPOS>ATOM
      1 CA         30.9462  -46.1083  -49.9610 C.3       0 UNK        -0.1968 
      2 C          32.0619  -45.3455  -49.2498 C.2       0 UNK         0.4852 
      3 O          31.9355  -45.0954  -48.0514 O.2       0 UNK        -0.5359 
      4 N          33.1595  -44.9428  -49.9102 N.am      1 UNK        -0.4300 
      5 CA         33.5484  -45.1543  -51.3153 C.3       1 UNK         0.0863 
      6 C6         32.5453  -44.5805  -52.3598 C.3       11 UNK        -0.0953 
      7 S7         32.0974  -42.8360  -52.0414 S.3       11 UNK        -0.2369 
      8 C8         32.9968  -41.9390  -53.3483 C.3       11 UNK         0.0226 
      9 C9         32.3397  -42.1226  -54.7082 C.ar      11 UNK        -0.0699 
     10 C10        32.8192  -43.0912  -55.5927 C.ar      11 UNK        -0.0804 
     11 C11        32.1721  -43.3271  -56.8084 C.ar      11 UNK        -0.0871 
     12 C12        31.0845  -42.5273  -57.1718 C.ar      11 UNK        -0.1008 
     13 C13        30.6155  -41.5296  -56.3135 C.ar      11 UNK        -0.0735 
     14 C14        31.2416  -41.3383  -55.0770 C.ar      11 UNK        -0.0945 
     15 C15        29.4445  -40.6488  -56.7261 C.3       11 UNK         0.0169 
     16 S16        27.8456  -41.3027  -56.1469 S.3       11 UNK        -0.2669 
     17 C17        27.3930  -42.5098  -57.4466 C.3       11 UNK        -0.0850 
     18 CA         27.2073  -43.9506  -56.8902 C.3       10 UNK         0.0855 
     19 C          25.9574  -44.1463  -55.9928 C.2       10 UNK         0.5543 
     20 N          25.8986  -45.2423  -55.2502 N.am      10 UNK        -0.7343 
     21 O          25.0281  -43.3419  -55.9903 O.2       10 UNK        -0.5027 
     22 N          27.1909  -44.9754  -57.9392 N.am      10 UNK        -0.4495 
     23 C          28.2492  -45.4140  -58.6219 C.2       10 UNK         0.4903 
     24 O          29.3635  -44.9045  -58.5386 O.2       10 UNK        -0.4860 
     25 CA         28.0416  -46.6421  -59.5318 C.3       9 UNK         0.0227 
     26 CB         29.3468  -47.1139  -60.2033 C.3       9 UNK        -0.1964 
     27 N          27.4266  -47.7841  -58.8417 N.am      9 UNK        -0.4231 
     28 C          26.1145  -47.8986  -58.5953 C.2       9 UNK         0.5014 
     29 O          25.3092  -46.9831  -58.7745 O.2       9 UNK        -0.5270 
     30 CA         25.5917  -49.2582  -58.1226 C.3       8 UNK         0.0284 
     31 CB         25.5350  -50.2521  -59.2998 C.3       8 UNK        -0.1977 
     32 N          26.3516  -49.8303  -57.0080 N.am      8 UNK        -0.4342 
     33 C          25.8187  -50.7083  -56.1455 C.2       8 UNK         0.5039 
     34 O          24.6389  -51.0646  -56.1721 O.2       8 UNK        -0.5547 
     35 CA         26.7437  -51.3245  -55.0861 C.3       7 UNK         0.0281 
     36 CB         27.5299  -52.5002  -55.6882 C.3       7 UNK        -0.1963 
     37 N          27.6647  -50.3659  -54.4761 N.am      7 UNK        -0.4444 
     38 C          27.2951  -49.3676  -53.6613 C.2       7 UNK         0.5104 
     39 O          26.1290  -49.1367  -53.3400 O.2       7 UNK        -0.5100 
     40 CA         28.4187  -48.4735  -53.1067 C.3       6 UNK         0.0396 
     41 CB         29.0888  -49.1399  -51.8950 C.3       6 UNK        -0.1801 
     42 N          29.4358  -48.1467  -54.1072 N.am      6 UNK        -0.4747 
     43 C          29.2076  -47.4438  -55.2259 C.2       6 UNK         0.5012 
     44 O          28.1184  -46.9515  -55.5146 O.2       6 UNK        -0.5003 
     45 CA         30.3830  -47.3207  -56.2099 C.3       5 UNK         0.0782 
     46 C46        31.3633  -46.2121  -55.7647 C.3       11 UNK        -0.0868 
     47 S47        32.8401  -46.0611  -56.8365 S.3       11 UNK        -0.2515 
     48 C48        32.6142  -44.4712  -57.7144 C.3       11 UNK         0.0199 
     49 N          31.0225  -48.6197  -56.4090 N.am      5 UNK        -0.4607 
     50 C          30.4542  -49.6554  -57.0393 C.2       4 UNK         0.5031 
     51 O          29.3360  -49.6149  -57.5606 O.2       4 UNK        -0.5119 
     52 CA         31.2660  -50.9614  -57.0654 C.3       4 UNK         0.0263 
     53 CB         32.2071  -50.9799  -58.2799 C.3       4 UNK        -0.1967 
     54 N          32.0419  -51.1757  -55.8371 N.am      4 UNK        -0.4237 
     55 C          31.4936  -51.4024  -54.6343 C.2       3 UNK         0.4908 
     56 O          30.2823  -51.4801  -54.4417 O.2       3 UNK        -0.5102 
     57 CA         32.4471  -51.5188  -53.4341 C.3       3 UNK         0.0241 
     58 CB         33.0648  -52.9248  -53.3662 C.3       3 UNK        -0.1971 
     59 N          33.5097  -50.5077  -53.4114 N.am      3 UNK        -0.4139 
     60 C          33.3092  -49.1826  -53.3928 C.2       2 UNK         0.5016 
     61 O          32.1965  -48.6554  -53.4726 O.2       2 UNK        -0.5319 
     62 CA         34.5706  -48.3054  -53.3073 C.3       2 UNK         0.0286 
     63 CB         35.2756  -48.2352  -54.6716 C.3       2 UNK        -0.1963 
     64 N          34.2548  -46.9450  -52.8592 N.am      2 UNK        -0.4790 
     65 C          33.9541  -46.6233  -51.5931 C.2       1 UNK         0.5024 
     66 O          34.0166  -47.4347  -50.6653 O.2       1 UNK        -0.4888 
     67 H67        30.3642  -46.6828  -49.2408 H         1 UNK         0.0892 
     68 H68        30.2696  -45.4121  -50.4555 H         1 UNK         0.0892 
     69 H69        31.3278  -46.8113  -50.6977 H         1 UNK         0.0892 
     70 H70        33.8615  -44.4590  -49.3690 H         1 UNK         0.3107 
     71 H71        34.4741  -44.5879  -51.4294 H         1 UNK         0.0773 
     72 H72        31.6275  -45.1662  -52.4000 H         1 UNK         0.0680 
     73 H73        32.9677  -44.6506  -53.3596 H         1 UNK         0.0680 
     74 H74        34.0368  -42.2686  -53.3696 H         1 UNK         0.0650 
     75 H75        33.0179  -40.8781  -53.0948 H         1 UNK         0.0650 
     76 H76        33.6708  -43.6975  -55.3181 H         1 UNK         0.1397 
     77 H77        30.5909  -42.6908  -58.1193 H         1 UNK         0.1363 
     78 H78        30.8703  -40.5827  -54.3980 H         1 UNK         0.1355 
     79 H79        29.4248  -40.5151  -57.8088 H         1 UNK         0.0707 
     80 H80        29.5796  -39.6506  -56.3066 H         1 UNK         0.0707 
     81 H81        26.4845  -42.1705  -57.9468 H         1 UNK         0.1034 
     82 H82        28.1666  -42.5033  -58.2141 H         1 UNK         0.1034 
     83 H83        28.0709  -44.1629  -56.2556 H         1 UNK         0.0482 
     84 H84        25.0956  -45.4110  -54.6666 H         1 UNK         0.3460 
     85 H85        26.6620  -45.9164  -55.2841 H         1 UNK         0.3460 
     86 H86        26.3153  -45.4806  -58.0502 H         1 UNK         0.2989 
     87 H87        27.3703  -46.3219  -60.3314 H         1 UNK         0.0559 
     88 H88        29.8101  -46.3056  -60.7709 H         1 UNK         0.0848 
     89 H89        29.1601  -47.9289  -60.9026 H         1 UNK         0.0848 
     90 H90        30.0805  -47.4613  -59.4758 H         1 UNK         0.0848 
     91 H91        28.0457  -48.5544  -58.6065 H         1 UNK         0.3144 
     92 H92        24.5679  -49.0801  -57.7852 H         1 UNK         0.0727 
     93 H93        25.0101  -51.1669  -59.0244 H         1 UNK         0.0790 
     94 H94        26.5331  -50.5298  -59.6407 H         1 UNK         0.0790 
     95 H95        25.0049  -49.8228  -60.1513 H         1 UNK         0.0790 
     96 H96        27.3333  -49.5854  -56.9281 H         1 UNK         0.3215 
     97 H97        26.1090  -51.7209  -54.2904 H         1 UNK         0.0863 
     98 H98        28.1012  -53.0280  -54.9244 H         1 UNK         0.0808 
     99 H99        28.2256  -52.1671  -56.4587 H         1 UNK         0.0808 
    100 H100       26.8579  -53.2268  -56.1468 H         1 UNK         0.0808 
    101 H101       28.6583  -50.5407  -54.6100 H         1 UNK         0.3118 
    102 H102       27.9685  -47.5356  -52.7750 H         1 UNK         0.0546 
    103 H103       29.5586  -50.0867  -52.1626 H         1 UNK         0.0828 
    104 H104       28.3599  -49.3467  -51.1104 H         1 UNK         0.0828 
    105 H105       29.8575  -48.5004  -51.4646 H         1 UNK         0.0828 
    106 H106       30.3808  -48.4851  -53.9323 H         1 UNK         0.3005 
    107 H107       29.9685  -47.0245  -57.1700 H         1 UNK         0.1257 
    108 H108       31.7196  -46.4002  -54.7514 H         1 UNK         0.0775 
    109 H109       30.8311  -45.2615  -55.7181 H         1 UNK         0.0775 
    110 H110       33.5566  -44.1979  -58.1902 H         1 UNK         0.0840 
    111 H111       31.9012  -44.6239  -58.5243 H         1 UNK         0.0840 
    112 H112       31.9252  -48.7410  -55.9751 H         1 UNK         0.2987 
    113 H113       30.5594  -51.7875  -57.1679 H         1 UNK         0.0785 
    114 H114       31.6484  -50.8421  -59.2069 H         1 UNK         0.0798 
    115 H115       32.7336  -51.9311  -58.3598 H         1 UNK         0.0798 
    116 H116       32.9525  -50.1851  -58.2280 H         1 UNK         0.0798 
    117 H117       33.0476  -51.1272  -55.9103 H         1 UNK         0.3079 
    118 H118       31.8470  -51.3715  -52.5336 H         1 UNK         0.0794 
    119 H119       33.6467  -53.0591  -52.4541 H         1 UNK         0.0786 
    120 H120       33.7202  -53.1227  -54.2153 H         1 UNK         0.0786 
    121 H121       32.2889  -53.6920  -53.3676 H         1 UNK         0.0786 
    122 H122       34.4568  -50.8545  -53.3569 H         1 UNK         0.3032 
    123 H123       35.2541  -48.7578  -52.5845 H         1 UNK         0.1094 
    124 H124       34.6188  -47.8459  -55.4480 H         1 UNK         0.0794 
    125 H125       36.1596  -47.5985  -54.6302 H         1 UNK         0.0794 
    126 H126       35.6079  -49.2223  -54.9954 H         1 UNK         0.0794 
    127 H127       34.1675  -46.2455  -53.5810 H         1 UNK         0.3016 
@<TRIPOS>BOND
     1    1    2 1    
     2    1   67 1    
     3    1   68 1    
     4    1   69 1    
     5    2    3 2    
     6    2    4 am   BACKBONE|DICT|INTERRES
     7    4    5 1    
     8    4   70 1    
     9    5    6 1    
    10    5   65 1    
    11    5   71 1    
    12    6    7 1    
    13    6   72 1    
    14    6   73 1    
    15    7    8 1    
    16    8    9 1    
    17    8   74 1    
    18    8   75 1    
    19    9   10 ar   
    20    9   14 ar   
    21   10   11 ar   
    22   10   76 1    
    23   11   12 ar   
    24   11   48 1    
    25   12   13 ar   
    26   12   77 1    
    27   13   14 ar   
    28   13   15 1    
    29   14   78 1    
    30   15   16 1    
    31   15   79 1    
    32   15   80 1    
    33   16   17 1    
    34   17   18 1    
    35   17   81 1    
    36   17   82 1    
    37   18   19 1    
    38   18   22 1    
    39   18   83 1    
    40   19   20 am   BACKBONE|DICT|INTERRES
    41   19   21 2    
    42   20   84 1    
    43   20   85 1    
    44   22   23 am   BACKBONE|DICT|INTERRES
    45   22   86 1    
    46   23   24 2    
    47   23   25 1    
    48   25   26 1    
    49   25   27 1    
    50   25   87 1    
    51   26   88 1    
    52   26   89 1    
    53   26   90 1    
    54   27   28 am   BACKBONE|DICT|INTERRES
    55   27   91 1    
    56   28   29 2    
    57   28   30 1    
    58   30   31 1    
    59   30   32 1    
    60   30   92 1    
    61   31   93 1    
    62   31   94 1    
    63   31   95 1    
    64   32   33 am   BACKBONE|DICT|INTERRES
    65   32   96 1    
    66   33   34 2    
    67   33   35 1    
    68   35   36 1    
    69   35   37 1    
    70   35   97 1    
    71   36   98 1    
    72   36   99 1    
    73   36  100 1    
    74   37   38 am   BACKBONE|DICT|INTERRES
    75   37  101 1    
    76   38   39 2    
    77   38   40 1    
    78   40   41 1    
    79   40   42 1    
    80   40  102 1    
    81   41  103 1    
    82   41  104 1    
    83   41  105 1    
    84   42   43 am   BACKBONE|DICT|INTERRES
    85   42  106 1    
    86   43   44 2    
    87   43   45 1    
    88   45   46 1    
    89   45   49 1    
    90   45  107 1    
    91   46   47 1    
    92   46  108 1    
    93   46  109 1    
    94   47   48 1    
    95   48  110 1    
    96   48  111 1    
    97   49   50 am   BACKBONE|DICT|INTERRES
    98   49  112 1    
    99   50   51 2    
   100   50   52 1    
   101   52   53 1    
   102   52   54 1    
   103   52  113 1    
   104   53  114 1    
   105   53  115 1    
   106   53  116 1    
   107   54   55 am   BACKBONE|DICT|INTERRES
   108   54  117 1    
   109   55   56 2    
   110   55   57 1    
   111   57   58 1    
   112   57   59 1    
   113   57  118 1    
   114   58  119 1    
   115   58  120 1    
   116   58  121 1    
   117   59   60 am   BACKBONE|DICT|INTERRES
   118   59  122 1    
   119   60   61 2    
   120   60   62 1    
   121   62   63 1    
   122   62   64 1    
   123   62  123 1    
   124   63  124 1    
   125   63  125 1    
   126   63  126 1    
   127   64   65 am   BACKBONE|DICT|INTERRES
   128   64  127 1    
   129   65   66 2    
@<TRIPOS>SUBSTRUCTURE
     1 UNK         1 GROUP             0       ****    0 ROOT    
