@<TRIPOS>MOLECULE
3R134
127   129    1
SMALL
USER_CHARGES


@<TRIPOS>ATOM
      1 CA         34.0446  -43.2431  -47.5727 C.3       0 UNK        -0.1968 
      2 C          34.3867  -43.7816  -48.9543 C.2       0 UNK         0.4852 
      3 O          35.5431  -43.7004  -49.3728 O.2       0 UNK        -0.5359 
      4 N          33.3898  -44.3214  -49.6670 N.am      1 UNK        -0.4300 
      5 CA         33.5399  -44.9295  -50.9929 C.3       1 UNK         0.0863 
      6 C6         32.1762  -45.1285  -51.7013 C.3       11 UNK        -0.0953 
      7 S7         31.1821  -43.6049  -51.8280 S.3       11 UNK        -0.2369 
      8 C8         31.7509  -42.8953  -53.4072 C.3       11 UNK         0.0226 
      9 C9         31.4569  -43.7882  -54.6067 C.ar      11 UNK        -0.0699 
     10 C10        32.5066  -44.2530  -55.4057 C.ar      11 UNK        -0.0804 
     11 C11        32.2498  -45.0518  -56.5235 C.ar      11 UNK        -0.0871 
     12 C12        30.9308  -45.3950  -56.8303 C.ar      11 UNK        -0.1008 
     13 C13        29.8700  -44.9420  -56.0389 C.ar      11 UNK        -0.0735 
     14 C14        30.1399  -44.1314  -54.9321 C.ar      11 UNK        -0.0945 
     15 C15        28.4400  -45.3607  -56.3601 C.3       11 UNK         0.0169 
     16 S16        27.9697  -44.9785  -58.0771 S.3       11 UNK        -0.2669 
     17 C17        27.6239  -43.1846  -57.9947 C.3       11 UNK        -0.0850 
     18 CA         26.1412  -42.8446  -58.3013 C.3       10 UNK         0.0855 
     19 C          25.8025  -43.0638  -59.8078 C.2       10 UNK         0.5543 
     20 N          25.0443  -44.0921  -60.1749 N.am      10 UNK        -0.7343 
     21 O          26.2290  -42.2790  -60.6514 O.2       10 UNK        -0.5027 
     22 N          25.2376  -43.5318  -57.3686 N.am      10 UNK        -0.4495 
     23 C          23.9354  -43.2660  -57.2170 C.2       10 UNK         0.4903 
     24 O          23.3863  -42.2737  -57.6982 O.2       10 UNK        -0.4860 
     25 CA         23.0983  -44.2707  -56.3951 C.3       9 UNK         0.0227 
     26 CB         21.7145  -44.5107  -57.0353 C.3       9 UNK        -0.1964 
     27 N          23.7528  -45.5599  -56.1095 N.am      9 UNK        -0.4231 
     28 C          24.2054  -46.4682  -56.9877 C.2       9 UNK         0.5014 
     29 O          24.2144  -46.3144  -58.2128 O.2       9 UNK        -0.5270 
     30 CA         24.7327  -47.7728  -56.3834 C.3       8 UNK         0.0284 
     31 CB         23.5767  -48.7489  -56.0942 C.3       8 UNK        -0.1977 
     32 N          25.6832  -48.3826  -57.3093 N.am      8 UNK        -0.4342 
     33 C          26.6655  -49.2183  -56.9554 C.2       8 UNK         0.5039 
     34 O          26.8417  -49.5952  -55.7934 O.2       8 UNK        -0.5547 
     35 CA         27.5805  -49.7358  -58.0812 C.3       7 UNK         0.0281 
     36 CB         28.1515  -48.5920  -58.9405 C.3       7 UNK        -0.1963 
     37 N          28.7015  -50.4683  -57.4951 N.am      7 UNK        -0.4444 
     38 C          28.9501  -51.7771  -57.6229 C.2       7 UNK         0.5104 
     39 O          28.2764  -52.5295  -58.3296 O.2       7 UNK        -0.5100 
     40 CA         30.1356  -52.3549  -56.8129 C.3       6 UNK         0.0396 
     41 CB         30.7946  -53.5677  -57.5038 C.3       6 UNK        -0.1801 
     42 N          31.1407  -51.3549  -56.4263 N.am      6 UNK        -0.4747 
     43 C          31.9075  -50.6082  -57.2406 C.2       6 UNK         0.5012 
     44 O          31.9590  -50.7695  -58.4610 O.2       6 UNK        -0.5003 
     45 CA         32.7302  -49.4729  -56.5798 C.3       5 UNK         0.0782 
     46 C46        33.0446  -48.3157  -57.5659 C.3       11 UNK        -0.0868 
     47 S47        34.1541  -47.0583  -56.8397 S.3       11 UNK        -0.2515 
     48 C48        33.3953  -45.5073  -57.4171 C.3       11 UNK         0.0199 
     49 N          32.1482  -48.9986  -55.3162 N.am      5 UNK        -0.4607 
     50 C          30.9140  -48.5053  -55.1266 C.2       4 UNK         0.5031 
     51 O          30.0836  -48.4143  -56.0284 O.2       4 UNK        -0.5119 
     52 CA         30.5236  -48.0818  -53.6940 C.3       4 UNK         0.0263 
     53 CB         29.0241  -48.2994  -53.4052 C.3       4 UNK        -0.1967 
     54 N          31.3464  -48.7033  -52.6465 N.am      4 UNK        -0.4237 
     55 C          31.5261  -50.0148  -52.4158 C.2       3 UNK         0.4908 
     56 O          30.9290  -50.9082  -53.0201 O.2       3 UNK        -0.5102 
     57 CA         32.6131  -50.3726  -51.3786 C.3       3 UNK         0.0241 
     58 CB         33.1218  -51.8221  -51.5300 C.3       3 UNK        -0.1971 
     59 N          33.7440  -49.4284  -51.3787 N.am      3 UNK        -0.4139 
     60 C          34.5304  -49.1000  -52.4163 C.2       2 UNK         0.5016 
     61 O          34.4034  -49.5723  -53.5472 O.2       2 UNK        -0.5319 
     62 CA         35.5731  -47.9945  -52.1594 C.3       2 UNK         0.0286 
     63 CB         36.6090  -47.8937  -53.2948 C.3       2 UNK        -0.1963 
     64 N          34.9234  -46.6894  -51.9991 N.am      2 UNK        -0.4790 
     65 C          34.2725  -46.2838  -50.9008 C.2       1 UNK         0.5024 
     66 O          34.1810  -46.9698  -49.8785 O.2       1 UNK        -0.4888 
     67 H67        32.9872  -43.3643  -47.3380 H         1 UNK         0.0892 
     68 H68        34.6228  -43.7675  -46.8123 H         1 UNK         0.0892 
     69 H69        34.2852  -42.1820  -47.5132 H         1 UNK         0.0892 
     70 H70        32.4625  -44.3690  -49.2703 H         1 UNK         0.3107 
     71 H71        34.1485  -44.2566  -51.6011 H         1 UNK         0.0773 
     72 H72        32.3234  -45.5385  -52.7012 H         1 UNK         0.0680 
     73 H73        31.5703  -45.8596  -51.1623 H         1 UNK         0.0680 
     74 H74        32.8180  -42.6814  -53.3304 H         1 UNK         0.0650 
     75 H75        31.2566  -41.9345  -53.5557 H         1 UNK         0.0650 
     76 H76        33.5264  -43.9834  -55.1673 H         1 UNK         0.1397 
     77 H77        30.7210  -46.0205  -57.6866 H         1 UNK         0.1363 
     78 H78        29.3285  -43.7753  -54.3121 H         1 UNK         0.1355 
     79 H79        27.7276  -44.8987  -55.6751 H         1 UNK         0.0707 
     80 H80        28.3495  -46.4367  -56.2120 H         1 UNK         0.0707 
     81 H81        27.8904  -42.8054  -57.0071 H         1 UNK         0.1034 
     82 H82        28.2899  -42.6691  -58.6894 H         1 UNK         0.1034 
     83 H83        26.0178  -41.7745  -58.1238 H         1 UNK         0.0482 
     84 H84        24.7224  -44.7638  -59.4868 H         1 UNK         0.3460 
     85 H85        24.8269  -44.2249  -61.1493 H         1 UNK         0.3460 
     86 H86        25.5976  -44.3849  -56.9696 H         1 UNK         0.2989 
     87 H87        22.9349  -43.7968  -55.4262 H         1 UNK         0.0559 
     88 H88        21.1527  -43.5800  -57.1242 H         1 UNK         0.0848 
     89 H89        21.8016  -44.9335  -58.0369 H         1 UNK         0.0848 
     90 H90        21.1113  -45.1920  -56.4355 H         1 UNK         0.0848 
     91 H91        23.8200  -45.7896  -55.1268 H         1 UNK         0.3144 
     92 H92        25.2488  -47.5320  -55.4511 H         1 UNK         0.0727 
     93 H93        23.9380  -49.6665  -55.6294 H         1 UNK         0.0790 
     94 H94        23.0456  -49.0231  -57.0067 H         1 UNK         0.0790 
     95 H95        22.8487  -48.3080  -55.4120 H         1 UNK         0.0790 
     96 H96        25.5957  -48.0616  -58.2663 H         1 UNK         0.3215 
     97 H97        26.9813  -50.3912  -58.7163 H         1 UNK         0.0863 
     98 H98        27.3660  -48.0310  -59.4473 H         1 UNK         0.0808 
     99 H99        28.7240  -47.8868  -58.3374 H         1 UNK         0.0808 
    100 H100       28.8169  -48.9774  -59.7131 H         1 UNK         0.0808 
    101 H101       29.2702  -49.9171  -56.8552 H         1 UNK         0.3118 
    102 H102       29.7043  -52.7102  -55.8760 H         1 UNK         0.0546 
    103 H103       30.0780  -54.3792  -57.6359 H         1 UNK         0.0828 
    104 H104       31.6208  -53.9619  -56.9125 H         1 UNK         0.0828 
    105 H105       31.1787  -53.3135  -58.4919 H         1 UNK         0.0828 
    106 H106       31.1652  -51.1308  -55.4380 H         1 UNK         0.3005 
    107 H107       33.6810  -49.9352  -56.3083 H         1 UNK         0.1257 
    108 H108       32.1187  -47.8505  -57.9044 H         1 UNK         0.0775 
    109 H109       33.5370  -48.6961  -58.4626 H         1 UNK         0.0775 
    110 H110       34.1650  -44.7345  -57.4417 H         1 UNK         0.0840 
    111 H111       33.0568  -45.6213  -58.4482 H         1 UNK         0.0840 
    112 H112       32.7760  -49.0743  -54.5213 H         1 UNK         0.2987 
    113 H113       30.7125  -47.0091  -53.6458 H         1 UNK         0.0785 
    114 H114       28.4038  -47.7258  -54.0946 H         1 UNK         0.0798 
    115 H115       28.7624  -47.9817  -52.3962 H         1 UNK         0.0798 
    116 H116       28.7396  -49.3464  -53.5148 H         1 UNK         0.0798 
    117 H117       31.9014  -48.0661  -52.0956 H         1 UNK         0.3079 
    118 H118       32.1380  -50.2875  -50.4002 H         1 UNK         0.0794 
    119 H119       32.3083  -52.5385  -51.4086 H         1 UNK         0.0786 
    120 H120       33.8744  -52.0590  -50.7780 H         1 UNK         0.0786 
    121 H121       33.5632  -51.9948  -52.5123 H         1 UNK         0.0786 
    122 H122       33.8917  -48.9155  -50.5147 H         1 UNK         0.3032 
    123 H123       36.1067  -48.2481  -51.2400 H         1 UNK         0.1094 
    124 H124       37.3758  -47.1527  -53.0680 H         1 UNK         0.0794 
    125 H125       37.1163  -48.8477  -53.4452 H         1 UNK         0.0794 
    126 H126       36.1466  -47.6184  -54.2440 H         1 UNK         0.0794 
    127 H127       34.9302  -46.0890  -52.8117 H         1 UNK         0.3016 
@<TRIPOS>BOND
     1    1    2 1    
     2    1   67 1    
     3    1   68 1    
     4    1   69 1    
     5    2    3 2    
     6    2    4 am   BACKBONE|DICT|INTERRES
     7    4    5 1    
     8    4   70 1    
     9    5    6 1    
    10    5   65 1    
    11    5   71 1    
    12    6    7 1    
    13    6   72 1    
    14    6   73 1    
    15    7    8 1    
    16    8    9 1    
    17    8   74 1    
    18    8   75 1    
    19    9   10 ar   
    20    9   14 ar   
    21   10   11 ar   
    22   10   76 1    
    23   11   12 ar   
    24   11   48 1    
    25   12   13 ar   
    26   12   77 1    
    27   13   14 ar   
    28   13   15 1    
    29   14   78 1    
    30   15   16 1    
    31   15   79 1    
    32   15   80 1    
    33   16   17 1    
    34   17   18 1    
    35   17   81 1    
    36   17   82 1    
    37   18   19 1    
    38   18   22 1    
    39   18   83 1    
    40   19   20 am   BACKBONE|DICT|INTERRES
    41   19   21 2    
    42   20   84 1    
    43   20   85 1    
    44   22   23 am   BACKBONE|DICT|INTERRES
    45   22   86 1    
    46   23   24 2    
    47   23   25 1    
    48   25   26 1    
    49   25   27 1    
    50   25   87 1    
    51   26   88 1    
    52   26   89 1    
    53   26   90 1    
    54   27   28 am   BACKBONE|DICT|INTERRES
    55   27   91 1    
    56   28   29 2    
    57   28   30 1    
    58   30   31 1    
    59   30   32 1    
    60   30   92 1    
    61   31   93 1    
    62   31   94 1    
    63   31   95 1    
    64   32   33 am   BACKBONE|DICT|INTERRES
    65   32   96 1    
    66   33   34 2    
    67   33   35 1    
    68   35   36 1    
    69   35   37 1    
    70   35   97 1    
    71   36   98 1    
    72   36   99 1    
    73   36  100 1    
    74   37   38 am   BACKBONE|DICT|INTERRES
    75   37  101 1    
    76   38   39 2    
    77   38   40 1    
    78   40   41 1    
    79   40   42 1    
    80   40  102 1    
    81   41  103 1    
    82   41  104 1    
    83   41  105 1    
    84   42   43 am   BACKBONE|DICT|INTERRES
    85   42  106 1    
    86   43   44 2    
    87   43   45 1    
    88   45   46 1    
    89   45   49 1    
    90   45  107 1    
    91   46   47 1    
    92   46  108 1    
    93   46  109 1    
    94   47   48 1    
    95   48  110 1    
    96   48  111 1    
    97   49   50 am   BACKBONE|DICT|INTERRES
    98   49  112 1    
    99   50   51 2    
   100   50   52 1    
   101   52   53 1    
   102   52   54 1    
   103   52  113 1    
   104   53  114 1    
   105   53  115 1    
   106   53  116 1    
   107   54   55 am   BACKBONE|DICT|INTERRES
   108   54  117 1    
   109   55   56 2    
   110   55   57 1    
   111   57   58 1    
   112   57   59 1    
   113   57  118 1    
   114   58  119 1    
   115   58  120 1    
   116   58  121 1    
   117   59   60 am   BACKBONE|DICT|INTERRES
   118   59  122 1    
   119   60   61 2    
   120   60   62 1    
   121   62   63 1    
   122   62   64 1    
   123   62  123 1    
   124   63  124 1    
   125   63  125 1    
   126   63  126 1    
   127   64   65 am   BACKBONE|DICT|INTERRES
   128   64  127 1    
   129   65   66 2    
@<TRIPOS>SUBSTRUCTURE
     1 UNK         1 GROUP             0       ****    0 ROOT    
