@<TRIPOS>MOLECULE
3R134
127   129    1
SMALL
USER_CHARGES


@<TRIPOS>ATOM
      1 CA         30.1470  -46.3909  -59.8038 C.3       0 UNK        -0.1968 
      2 C          31.3481  -46.5062  -58.8788 C.2       0 UNK         0.4852 
      3 O          32.4833  -46.4969  -59.3576 O.2       0 UNK        -0.5359 
      4 N          31.0964  -46.6236  -57.5675 N.am      1 UNK        -0.4300 
      5 CA         32.0836  -46.8236  -56.4943 C.3       1 UNK         0.0863 
      6 C6         33.1151  -45.6656  -56.3381 C.3       11 UNK        -0.0953 
      7 S7         32.3696  -44.0046  -56.2307 S.3       11 UNK        -0.2369 
      8 C8         33.0051  -43.3372  -54.6478 C.3       11 UNK         0.0226 
      9 C9         31.9026  -43.0840  -53.6234 C.ar      11 UNK        -0.0699 
     10 C10        32.1108  -43.3639  -52.2695 C.ar      11 UNK        -0.0804 
     11 C11        31.1040  -43.1152  -51.3292 C.ar      11 UNK        -0.0871 
     12 C12        29.8680  -42.6146  -51.7578 C.ar      11 UNK        -0.1008 
     13 C13        29.6526  -42.3117  -53.1064 C.ar      11 UNK        -0.0735 
     14 C14        30.6875  -42.5204  -54.0193 C.ar      11 UNK        -0.0945 
     15 C15        28.3273  -41.7153  -53.5732 C.3       11 UNK         0.0169 
     16 S16        27.3412  -42.8777  -54.5805 S.3       11 UNK        -0.2669 
     17 C17        28.1987  -42.8181  -56.1956 C.3       11 UNK        -0.0850 
     18 CA         27.2547  -42.8626  -57.4316 C.3       10 UNK         0.0855 
     19 C          28.0328  -42.6366  -58.7661 C.2       10 UNK         0.5543 
     20 N          27.7220  -43.3398  -59.8485 N.am      10 UNK        -0.7343 
     21 O          28.9093  -41.7786  -58.8344 O.2       10 UNK        -0.5027 
     22 N          26.3380  -44.0174  -57.4453 N.am      10 UNK        -0.4495 
     23 C          26.6828  -45.3109  -57.4603 C.2       10 UNK         0.4903 
     24 O          27.8440  -45.7138  -57.3646 O.2       10 UNK        -0.4860 
     25 CA         25.5135  -46.3108  -57.5660 C.3       9 UNK         0.0227 
     26 CB         24.4414  -45.8901  -58.5979 C.3       9 UNK        -0.1964 
     27 N          25.9655  -47.6865  -57.8019 N.am      9 UNK        -0.4231 
     28 C          26.5558  -48.1920  -58.8990 C.2       9 UNK         0.5014 
     29 O          26.7174  -47.5624  -59.9461 O.2       9 UNK        -0.5270 
     30 CA         27.0205  -49.6650  -58.8185 C.3       8 UNK         0.0284 
     31 CB         28.1919  -49.9820  -59.7751 C.3       8 UNK        -0.1977 
     32 N          27.3116  -50.0978  -57.4438 N.am      8 UNK        -0.4342 
     33 C          28.2866  -49.6308  -56.6524 C.2       8 UNK         0.5039 
     34 O          29.2021  -48.8938  -57.0236 O.2       8 UNK        -0.5547 
     35 CA         28.1808  -49.9883  -55.1654 C.3       7 UNK         0.0281 
     36 CB         29.3665  -50.8398  -54.6972 C.3       7 UNK        -0.1963 
     37 N          28.1270  -48.7455  -54.3985 N.am      7 UNK        -0.4444 
     38 C          27.0514  -47.9455  -54.3612 C.2       7 UNK         0.5104 
     39 O          25.9682  -48.2627  -54.8577 O.2       7 UNK        -0.5100 
     40 CA         27.2012  -46.5494  -53.7219 C.3       6 UNK         0.0396 
     41 CB         25.9663  -46.1525  -52.8874 C.3       6 UNK        -0.1801 
     42 N          28.4405  -46.3428  -52.9632 N.am      6 UNK        -0.4747 
     43 C          28.8303  -46.9897  -51.8563 C.2       6 UNK         0.5012 
     44 O          28.1704  -47.8640  -51.2905 O.2       6 UNK        -0.5003 
     45 CA         30.2077  -46.6005  -51.2944 C.3       5 UNK         0.0782 
     46 C46        30.0501  -45.8315  -49.9625 C.3       11 UNK        -0.0868 
     47 S47        31.6327  -45.1009  -49.4358 S.3       11 UNK        -0.2515 
     48 C48        31.3659  -43.3464  -49.8449 C.3       11 UNK         0.0199 
     49 N          31.0582  -47.7842  -51.1439 N.am      5 UNK        -0.4607 
     50 C          31.4859  -48.5568  -52.1478 C.2       4 UNK         0.5031 
     51 O          31.2400  -48.3422  -53.3386 O.2       4 UNK        -0.5119 
     52 CA         32.3200  -49.7776  -51.7454 C.3       4 UNK         0.0263 
     53 CB         31.4312  -50.9001  -51.1741 C.3       4 UNK        -0.1967 
     54 N          33.0585  -50.2493  -52.9125 N.am      4 UNK        -0.4237 
     55 C          34.1172  -51.0673  -52.8934 C.2       3 UNK         0.4908 
     56 O          34.5738  -51.5550  -51.8578 O.2       3 UNK        -0.5102 
     57 CA         34.8251  -51.3644  -54.2312 C.3       3 UNK         0.0241 
     58 CB         35.2172  -52.8515  -54.3699 C.3       3 UNK        -0.1971 
     59 N          34.1155  -50.8823  -55.4242 N.am      3 UNK        -0.4139 
     60 C          32.9784  -51.3397  -55.9659 C.2       2 UNK         0.5016 
     61 O          32.3167  -52.2696  -55.5030 O.2       2 UNK        -0.5319 
     62 CA         32.5015  -50.6034  -57.2343 C.3       2 UNK         0.0286 
     63 CB         31.4132  -51.3790  -57.9989 C.3       2 UNK        -0.1963 
     64 N          32.0154  -49.2481  -56.9516 N.am      2 UNK        -0.4790 
     65 C          32.7854  -48.1951  -56.6377 C.2       1 UNK         0.5024 
     66 O          34.0084  -48.2817  -56.4979 O.2       1 UNK        -0.4888 
     67 H67        29.2407  -46.7581  -59.3248 H         1 UNK         0.0892 
     68 H68        29.9874  -45.3512  -60.0871 H         1 UNK         0.0892 
     69 H69        30.3041  -46.9762  -60.7092 H         1 UNK         0.0892 
     70 H70        30.1272  -46.6813  -57.2736 H         1 UNK         0.3107 
     71 H71        31.5072  -46.8748  -55.5698 H         1 UNK         0.0773 
     72 H72        33.8061  -45.6522  -57.1826 H         1 UNK         0.0680 
     73 H73        33.7312  -45.8429  -55.4559 H         1 UNK         0.0680 
     74 H74        33.5032  -42.3891  -54.8535 H         1 UNK         0.0650 
     75 H75        33.7685  -43.9955  -54.2325 H         1 UNK         0.0650 
     76 H76        33.0613  -43.7618  -51.9405 H         1 UNK         0.1397 
     77 H77        29.0833  -42.4295  -51.0369 H         1 UNK         0.1363 
     78 H78        30.5545  -42.2472  -55.0532 H         1 UNK         0.1355 
     79 H79        28.5112  -40.7988  -54.1356 H         1 UNK         0.0707 
     80 H80        27.7265  -41.4210  -52.7114 H         1 UNK         0.0707 
     81 H81        28.7695  -41.8902  -56.2362 H         1 UNK         0.1034 
     82 H82        28.9290  -43.6281  -56.2359 H         1 UNK         0.1034 
     83 H83        26.5995  -41.9942  -57.3550 H         1 UNK         0.0482 
     84 H84        27.0089  -44.0495  -59.8094 H         1 UNK         0.3460 
     85 H85        28.2183  -43.1666  -60.7080 H         1 UNK         0.3460 
     86 H86        25.3585  -43.7826  -57.5097 H         1 UNK         0.2989 
     87 H87        25.0372  -46.3232  -56.5848 H         1 UNK         0.0559 
     88 H88        23.9209  -44.9833  -58.2893 H         1 UNK         0.0848 
     89 H89        23.6813  -46.6627  -58.7140 H         1 UNK         0.0848 
     90 H90        24.8729  -45.7001  -59.5812 H         1 UNK         0.0848 
     91 H91        25.9331  -48.2728  -56.9757 H         1 UNK         0.3144 
     92 H92        26.1670  -50.2611  -59.1448 H         1 UNK         0.0727 
     93 H93        28.5062  -51.0218  -59.6875 H         1 UNK         0.0790 
     94 H94        29.0595  -49.3514  -59.5806 H         1 UNK         0.0790 
     95 H95        27.9024  -49.8177  -60.8136 H         1 UNK         0.0790 
     96 H96        26.6178  -50.7072  -57.0310 H         1 UNK         0.3215 
     97 H97        27.2647  -50.5552  -54.9843 H         1 UNK         0.0863 
     98 H98        29.2709  -51.0908  -53.6423 H         1 UNK         0.0808 
     99 H99        30.3164  -50.3256  -54.8381 H         1 UNK         0.0808 
    100 H100       29.4180  -51.7791  -55.2485 H         1 UNK         0.0808 
    101 H101       29.0017  -48.4073  -54.0184 H         1 UNK         0.3118 
    102 H102       27.2596  -45.8571  -54.5612 H         1 UNK         0.0546 
    103 H103       25.0632  -46.1560  -53.4987 H         1 UNK         0.0828 
    104 H104       26.0719  -45.1477  -52.4785 H         1 UNK         0.0828 
    105 H105       25.7982  -46.8393  -52.0576 H         1 UNK         0.0828 
    106 H106       29.0586  -45.6422  -53.3507 H         1 UNK         0.3005 
    107 H107       30.6968  -45.9436  -52.0173 H         1 UNK         0.1257 
    108 H108       29.6913  -46.4942  -49.1727 H         1 UNK         0.0775 
    109 H109       29.3030  -45.0401  -50.0511 H         1 UNK         0.0775 
    110 H110       30.5440  -42.9615  -49.2390 H         1 UNK         0.0840 
    111 H111       32.2496  -42.7794  -49.5487 H         1 UNK         0.0840 
    112 H112       31.2946  -48.0357  -50.1954 H         1 UNK         0.2987 
    113 H113       33.0362  -49.4587  -50.9851 H         1 UNK         0.0785 
    114 H114       32.0312  -51.7190  -50.7775 H         1 UNK         0.0798 
    115 H115       30.7696  -51.3147  -51.9330 H         1 UNK         0.0798 
    116 H116       30.8065  -50.5376  -50.3569 H         1 UNK         0.0798 
    117 H117       32.7425  -49.8550  -53.7897 H         1 UNK         0.3079 
    118 H118       35.7523  -50.7905  -54.1985 H         1 UNK         0.0794 
    119 H119       35.8892  -53.1560  -53.5665 H         1 UNK         0.0786 
    120 H120       35.7347  -53.0403  -55.3104 H         1 UNK         0.0786 
    121 H121       34.3470  -53.5070  -54.3267 H         1 UNK         0.0786 
    122 H122       34.5011  -50.0421  -55.8484 H         1 UNK         0.3032 
    123 H123       33.3642  -50.5222  -57.8998 H         1 UNK         0.1094 
    124 H124       31.1460  -50.8740  -58.9271 H         1 UNK         0.0794 
    125 H125       31.7590  -52.3795  -58.2618 H         1 UNK         0.0794 
    126 H126       30.5048  -51.4944  -57.4092 H         1 UNK         0.0794 
    127 H127       31.0080  -49.0999  -57.0275 H         1 UNK         0.3016 
@<TRIPOS>BOND
     1    1    2 1    
     2    1   67 1    
     3    1   68 1    
     4    1   69 1    
     5    2    3 2    
     6    2    4 am   BACKBONE|DICT|INTERRES
     7    4    5 1    
     8    4   70 1    
     9    5    6 1    
    10    5   65 1    
    11    5   71 1    
    12    6    7 1    
    13    6   72 1    
    14    6   73 1    
    15    7    8 1    
    16    8    9 1    
    17    8   74 1    
    18    8   75 1    
    19    9   10 ar   
    20    9   14 ar   
    21   10   11 ar   
    22   10   76 1    
    23   11   12 ar   
    24   11   48 1    
    25   12   13 ar   
    26   12   77 1    
    27   13   14 ar   
    28   13   15 1    
    29   14   78 1    
    30   15   16 1    
    31   15   79 1    
    32   15   80 1    
    33   16   17 1    
    34   17   18 1    
    35   17   81 1    
    36   17   82 1    
    37   18   19 1    
    38   18   22 1    
    39   18   83 1    
    40   19   20 am   BACKBONE|DICT|INTERRES
    41   19   21 2    
    42   20   84 1    
    43   20   85 1    
    44   22   23 am   BACKBONE|DICT|INTERRES
    45   22   86 1    
    46   23   24 2    
    47   23   25 1    
    48   25   26 1    
    49   25   27 1    
    50   25   87 1    
    51   26   88 1    
    52   26   89 1    
    53   26   90 1    
    54   27   28 am   BACKBONE|DICT|INTERRES
    55   27   91 1    
    56   28   29 2    
    57   28   30 1    
    58   30   31 1    
    59   30   32 1    
    60   30   92 1    
    61   31   93 1    
    62   31   94 1    
    63   31   95 1    
    64   32   33 am   BACKBONE|DICT|INTERRES
    65   32   96 1    
    66   33   34 2    
    67   33   35 1    
    68   35   36 1    
    69   35   37 1    
    70   35   97 1    
    71   36   98 1    
    72   36   99 1    
    73   36  100 1    
    74   37   38 am   BACKBONE|DICT|INTERRES
    75   37  101 1    
    76   38   39 2    
    77   38   40 1    
    78   40   41 1    
    79   40   42 1    
    80   40  102 1    
    81   41  103 1    
    82   41  104 1    
    83   41  105 1    
    84   42   43 am   BACKBONE|DICT|INTERRES
    85   42  106 1    
    86   43   44 2    
    87   43   45 1    
    88   45   46 1    
    89   45   49 1    
    90   45  107 1    
    91   46   47 1    
    92   46  108 1    
    93   46  109 1    
    94   47   48 1    
    95   48  110 1    
    96   48  111 1    
    97   49   50 am   BACKBONE|DICT|INTERRES
    98   49  112 1    
    99   50   51 2    
   100   50   52 1    
   101   52   53 1    
   102   52   54 1    
   103   52  113 1    
   104   53  114 1    
   105   53  115 1    
   106   53  116 1    
   107   54   55 am   BACKBONE|DICT|INTERRES
   108   54  117 1    
   109   55   56 2    
   110   55   57 1    
   111   57   58 1    
   112   57   59 1    
   113   57  118 1    
   114   58  119 1    
   115   58  120 1    
   116   58  121 1    
   117   59   60 am   BACKBONE|DICT|INTERRES
   118   59  122 1    
   119   60   61 2    
   120   60   62 1    
   121   62   63 1    
   122   62   64 1    
   123   62  123 1    
   124   63  124 1    
   125   63  125 1    
   126   63  126 1    
   127   64   65 am   BACKBONE|DICT|INTERRES
   128   64  127 1    
   129   65   66 2    
@<TRIPOS>SUBSTRUCTURE
     1 UNK         1 GROUP             0       ****    0 ROOT    
